version 2
run nodebug-11-20200606-17:18:57-10964
attr configname nodebug
attr datetime 20200606-17:18:57
attr experiment nodebug
attr inifile omnetpp.ini
attr iterationvars ""
attr iterationvars2 $repetition=11
attr measurement ""
attr network "\"org.car2x.veins.modules.application.ExtTraCIScenarioManagerLaunchd.IntersectionExampleScenario\""
attr processid 10964
attr repetition 11
attr replication #11
attr resultdir results
attr runnumber 11
attr seedset 11
param **.coreDebug false
param **.debug false
param *.**.nic.mac1609_4.bitrate 18Mbps
param *.**.nic.mac1609_4.txPower 20mW
param *.**.nic.mac1609_4.useServiceChannel false
param *.**.nic.phy80211p.analogueModels "xmldoc(\"config.xml\")"
param *.**.nic.phy80211p.decider "xmldoc(\"config.xml\")"
param *.**.nic.phy80211p.sensitivity -89dBm
param *.**.nic.phy80211p.thermalNoise -110dBm
param *.**.nic.phy80211p.usePropagationDelay true
param *.**.nic.phy80211p.useThermalNoise true
param *.annotations.draw false
param *.connectionManager.alpha 2.0
param *.connectionManager.carrierFrequency "5.890e9 Hz"
param *.connectionManager.pMax 20mW
param *.connectionManager.sat -89dBm
param *.connectionManager.sendDirect true
param *.manager.autoShutdown true
param *.manager.host "\"localhost\""
param *.manager.launchConfig "xmldoc(\"paramics.launchd.xml\")"
param *.manager.margin 25
param *.manager.moduleDisplayString "\"\""
param *.manager.moduleName "\"node\""
param *.manager.moduleType "\"org.car2x.veins.nodes.Car\""
param *.manager.port 9999
param *.manager.updateInterval 250ms
param *.node[*0].veinsmobility.accidentCount 0
param *.node[*0].veinsmobility.accidentDuration 30s
param *.node[*0].veinsmobility.accidentStart 75s
param *.node[*].appl.LiderSelectZoneRadio 55.0
param *.node[*].appl.ShareDataZoneRadio 110.0
param *.node[*].appl.TiempoSemaforo 30.0
param *.node[*].appl.beaconInterval 1s
param *.node[*].appl.beaconPriority 3
param *.node[*].appl.dataOnSch false
param *.node[*].appl.dataPriority 2
param *.node[*].appl.debug false
param *.node[*].appl.headerLength "256 bit"
param *.node[*].appl.maxOffset 0.005s
param *.node[*].appl.sendBeacons false
param *.node[*].appl.sendData true
param *.node[*].applType "\"Dummy\""
param *.node[*].mobilityType "\"TraCIMobility\""
param *.node[*].mobilityType.debug true
param *.node[*].veinsmobility.x 0
param *.node[*].veinsmobility.y 0
param *.node[*].veinsmobility.z 1.895
param *.node[*].veinsmobilityType "\"org.car2x.veins.modules.mobility.traci.TraCIMobility\""
param *.node[*].veinsmobilityType.debug true
param *.playgroundSizeX 8500m
param *.playgroundSizeY 8500m
param *.playgroundSizeZ 50m
param *.world.use2D false
param *.world.useTorus false

scalar IntersectionExampleScenario.node[3].appl 	VehicleRemoved 	0
scalar IntersectionExampleScenario.node[3].appl 	ArrivedAtDest 	1
scalar IntersectionExampleScenario.node[3].appl 	IntersectionEnterTime 	14.5
scalar IntersectionExampleScenario.node[3].appl 	IntersectionExitTime 	37.829041751887
scalar IntersectionExampleScenario.node[3].appl 	NumberOfCollisions 	0
scalar IntersectionExampleScenario.node[3].nic.phy80211p 	busyTime 	0
scalar IntersectionExampleScenario.node[3].nic.mac1609_4 	ReceivedUnicastPackets 	0
scalar IntersectionExampleScenario.node[3].nic.mac1609_4 	ReceivedBroadcasts 	0
scalar IntersectionExampleScenario.node[3].nic.mac1609_4 	SentPackets 	0
scalar IntersectionExampleScenario.node[3].nic.mac1609_4 	SNIRLostPackets 	0
scalar IntersectionExampleScenario.node[3].nic.mac1609_4 	RXTXLostPackets 	0
scalar IntersectionExampleScenario.node[3].nic.mac1609_4 	TotalLostPackets 	0
scalar IntersectionExampleScenario.node[3].nic.mac1609_4 	DroppedPacketsInMac 	0
scalar IntersectionExampleScenario.node[3].nic.mac1609_4 	TooLittleTime 	0
scalar IntersectionExampleScenario.node[3].nic.mac1609_4 	TimesIntoBackoff 	0
scalar IntersectionExampleScenario.node[3].nic.mac1609_4 	SlotsBackoff 	0
scalar IntersectionExampleScenario.node[3].nic.mac1609_4 	NumInternalContention 	0
scalar IntersectionExampleScenario.node[3].nic.mac1609_4 	totalBusyTime 	0
scalar IntersectionExampleScenario.node[3].veinsmobility 	startTime 	14.5
scalar IntersectionExampleScenario.node[3].veinsmobility 	totalTime 	39.5
scalar IntersectionExampleScenario.node[3].veinsmobility 	stopTime 	54.25
scalar IntersectionExampleScenario.node[3].veinsmobility 	minSpeed 	5.6500000953674
scalar IntersectionExampleScenario.node[3].veinsmobility 	maxSpeed 	15.64999961853
scalar IntersectionExampleScenario.node[3].veinsmobility 	totalDistance 	550.74516096505
scalar IntersectionExampleScenario.node[3].veinsmobility 	totalCO2Emission 	122.88181662431
scalar IntersectionExampleScenario.node[2].appl 	VehicleRemoved 	0
scalar IntersectionExampleScenario.node[2].appl 	ArrivedAtDest 	1
scalar IntersectionExampleScenario.node[2].appl 	IntersectionEnterTime 	13.25
scalar IntersectionExampleScenario.node[2].appl 	IntersectionExitTime 	38.763592008851
scalar IntersectionExampleScenario.node[2].appl 	NumberOfCollisions 	0
scalar IntersectionExampleScenario.node[2].nic.phy80211p 	busyTime 	0
scalar IntersectionExampleScenario.node[2].nic.mac1609_4 	ReceivedUnicastPackets 	0
scalar IntersectionExampleScenario.node[2].nic.mac1609_4 	ReceivedBroadcasts 	0
scalar IntersectionExampleScenario.node[2].nic.mac1609_4 	SentPackets 	0
scalar IntersectionExampleScenario.node[2].nic.mac1609_4 	SNIRLostPackets 	0
scalar IntersectionExampleScenario.node[2].nic.mac1609_4 	RXTXLostPackets 	0
scalar IntersectionExampleScenario.node[2].nic.mac1609_4 	TotalLostPackets 	0
scalar IntersectionExampleScenario.node[2].nic.mac1609_4 	DroppedPacketsInMac 	0
scalar IntersectionExampleScenario.node[2].nic.mac1609_4 	TooLittleTime 	0
scalar IntersectionExampleScenario.node[2].nic.mac1609_4 	TimesIntoBackoff 	0
scalar IntersectionExampleScenario.node[2].nic.mac1609_4 	SlotsBackoff 	0
scalar IntersectionExampleScenario.node[2].nic.mac1609_4 	NumInternalContention 	0
scalar IntersectionExampleScenario.node[2].nic.mac1609_4 	totalBusyTime 	0
scalar IntersectionExampleScenario.node[2].veinsmobility 	startTime 	13.25
scalar IntersectionExampleScenario.node[2].veinsmobility 	totalTime 	41.75
scalar IntersectionExampleScenario.node[2].veinsmobility 	stopTime 	55.25
scalar IntersectionExampleScenario.node[2].veinsmobility 	minSpeed 	3.8894097805023
scalar IntersectionExampleScenario.node[2].veinsmobility 	maxSpeed 	15.5
scalar IntersectionExampleScenario.node[2].veinsmobility 	totalDistance 	553.60495758057
scalar IntersectionExampleScenario.node[2].veinsmobility 	totalCO2Emission 	130.33996937734
scalar IntersectionExampleScenario.node[1].appl 	VehicleRemoved 	0
scalar IntersectionExampleScenario.node[1].appl 	ArrivedAtDest 	1
scalar IntersectionExampleScenario.node[1].appl 	IntersectionEnterTime 	11
scalar IntersectionExampleScenario.node[1].appl 	IntersectionExitTime 	39.560921450611
scalar IntersectionExampleScenario.node[1].appl 	NumberOfCollisions 	0
scalar IntersectionExampleScenario.node[1].nic.phy80211p 	busyTime 	0
scalar IntersectionExampleScenario.node[1].nic.mac1609_4 	ReceivedUnicastPackets 	0
scalar IntersectionExampleScenario.node[1].nic.mac1609_4 	ReceivedBroadcasts 	0
scalar IntersectionExampleScenario.node[1].nic.mac1609_4 	SentPackets 	0
scalar IntersectionExampleScenario.node[1].nic.mac1609_4 	SNIRLostPackets 	0
scalar IntersectionExampleScenario.node[1].nic.mac1609_4 	RXTXLostPackets 	0
scalar IntersectionExampleScenario.node[1].nic.mac1609_4 	TotalLostPackets 	0
scalar IntersectionExampleScenario.node[1].nic.mac1609_4 	DroppedPacketsInMac 	0
scalar IntersectionExampleScenario.node[1].nic.mac1609_4 	TooLittleTime 	0
scalar IntersectionExampleScenario.node[1].nic.mac1609_4 	TimesIntoBackoff 	0
scalar IntersectionExampleScenario.node[1].nic.mac1609_4 	SlotsBackoff 	0
scalar IntersectionExampleScenario.node[1].nic.mac1609_4 	NumInternalContention 	0
scalar IntersectionExampleScenario.node[1].nic.mac1609_4 	totalBusyTime 	0
scalar IntersectionExampleScenario.node[1].veinsmobility 	startTime 	11
scalar IntersectionExampleScenario.node[1].veinsmobility 	totalTime 	44.25
scalar IntersectionExampleScenario.node[1].veinsmobility 	stopTime 	55.5
scalar IntersectionExampleScenario.node[1].veinsmobility 	minSpeed 	0
scalar IntersectionExampleScenario.node[1].veinsmobility 	maxSpeed 	15.64999961853
scalar IntersectionExampleScenario.node[1].veinsmobility 	totalDistance 	551.6266784668
scalar IntersectionExampleScenario.node[1].veinsmobility 	totalCO2Emission 	139.80185460232
scalar IntersectionExampleScenario.node[4].appl 	VehicleRemoved 	0
scalar IntersectionExampleScenario.node[4].appl 	ArrivedAtDest 	1
scalar IntersectionExampleScenario.node[4].appl 	IntersectionEnterTime 	18.25
scalar IntersectionExampleScenario.node[4].appl 	IntersectionExitTime 	41.269739038835
scalar IntersectionExampleScenario.node[4].appl 	NumberOfCollisions 	0
scalar IntersectionExampleScenario.node[4].nic.phy80211p 	busyTime 	0
scalar IntersectionExampleScenario.node[4].nic.mac1609_4 	ReceivedUnicastPackets 	0
scalar IntersectionExampleScenario.node[4].nic.mac1609_4 	ReceivedBroadcasts 	0
scalar IntersectionExampleScenario.node[4].nic.mac1609_4 	SentPackets 	0
scalar IntersectionExampleScenario.node[4].nic.mac1609_4 	SNIRLostPackets 	0
scalar IntersectionExampleScenario.node[4].nic.mac1609_4 	RXTXLostPackets 	0
scalar IntersectionExampleScenario.node[4].nic.mac1609_4 	TotalLostPackets 	0
scalar IntersectionExampleScenario.node[4].nic.mac1609_4 	DroppedPacketsInMac 	0
scalar IntersectionExampleScenario.node[4].nic.mac1609_4 	TooLittleTime 	0
scalar IntersectionExampleScenario.node[4].nic.mac1609_4 	TimesIntoBackoff 	0
scalar IntersectionExampleScenario.node[4].nic.mac1609_4 	SlotsBackoff 	0
scalar IntersectionExampleScenario.node[4].nic.mac1609_4 	NumInternalContention 	0
scalar IntersectionExampleScenario.node[4].nic.mac1609_4 	totalBusyTime 	0
scalar IntersectionExampleScenario.node[4].veinsmobility 	startTime 	18.25
scalar IntersectionExampleScenario.node[4].veinsmobility 	totalTime 	38.75
scalar IntersectionExampleScenario.node[4].veinsmobility 	stopTime 	57.25
scalar IntersectionExampleScenario.node[4].veinsmobility 	minSpeed 	5.6500000953674
scalar IntersectionExampleScenario.node[4].veinsmobility 	maxSpeed 	16.024513244629
scalar IntersectionExampleScenario.node[4].veinsmobility 	totalDistance 	551.70326417084
scalar IntersectionExampleScenario.node[4].veinsmobility 	totalCO2Emission 	131.9628575451
scalar IntersectionExampleScenario.node[0].appl 	VehicleRemoved 	0
scalar IntersectionExampleScenario.node[0].appl 	ArrivedAtDest 	1
scalar IntersectionExampleScenario.node[0].appl 	IntersectionEnterTime 	6.75
scalar IntersectionExampleScenario.node[0].appl 	IntersectionExitTime 	52.340616740665
scalar IntersectionExampleScenario.node[0].appl 	NumberOfCollisions 	0
scalar IntersectionExampleScenario.node[0].nic.phy80211p 	busyTime 	0
scalar IntersectionExampleScenario.node[0].nic.mac1609_4 	ReceivedUnicastPackets 	0
scalar IntersectionExampleScenario.node[0].nic.mac1609_4 	ReceivedBroadcasts 	0
scalar IntersectionExampleScenario.node[0].nic.mac1609_4 	SentPackets 	0
scalar IntersectionExampleScenario.node[0].nic.mac1609_4 	SNIRLostPackets 	0
scalar IntersectionExampleScenario.node[0].nic.mac1609_4 	RXTXLostPackets 	0
scalar IntersectionExampleScenario.node[0].nic.mac1609_4 	TotalLostPackets 	0
scalar IntersectionExampleScenario.node[0].nic.mac1609_4 	DroppedPacketsInMac 	0
scalar IntersectionExampleScenario.node[0].nic.mac1609_4 	TooLittleTime 	0
scalar IntersectionExampleScenario.node[0].nic.mac1609_4 	TimesIntoBackoff 	0
scalar IntersectionExampleScenario.node[0].nic.mac1609_4 	SlotsBackoff 	0
scalar IntersectionExampleScenario.node[0].nic.mac1609_4 	NumInternalContention 	0
scalar IntersectionExampleScenario.node[0].nic.mac1609_4 	totalBusyTime 	0
scalar IntersectionExampleScenario.node[0].veinsmobility 	startTime 	6.75
scalar IntersectionExampleScenario.node[0].veinsmobility 	totalTime 	61.5
scalar IntersectionExampleScenario.node[0].veinsmobility 	stopTime 	68.5
scalar IntersectionExampleScenario.node[0].veinsmobility 	minSpeed 	0
scalar IntersectionExampleScenario.node[0].veinsmobility 	maxSpeed 	15.64999961853
scalar IntersectionExampleScenario.node[0].veinsmobility 	totalDistance 	552.47965240479
scalar IntersectionExampleScenario.node[0].veinsmobility 	totalCO2Emission 	153.6574845165
scalar IntersectionExampleScenario.node[6].appl 	VehicleRemoved 	0
scalar IntersectionExampleScenario.node[6].appl 	ArrivedAtDest 	1
scalar IntersectionExampleScenario.node[6].appl 	IntersectionEnterTime 	28
scalar IntersectionExampleScenario.node[6].appl 	IntersectionExitTime 	54.824942924286
scalar IntersectionExampleScenario.node[6].appl 	NumberOfCollisions 	0
scalar IntersectionExampleScenario.node[6].nic.phy80211p 	busyTime 	0
scalar IntersectionExampleScenario.node[6].nic.mac1609_4 	ReceivedUnicastPackets 	0
scalar IntersectionExampleScenario.node[6].nic.mac1609_4 	ReceivedBroadcasts 	0
scalar IntersectionExampleScenario.node[6].nic.mac1609_4 	SentPackets 	0
scalar IntersectionExampleScenario.node[6].nic.mac1609_4 	SNIRLostPackets 	0
scalar IntersectionExampleScenario.node[6].nic.mac1609_4 	RXTXLostPackets 	0
scalar IntersectionExampleScenario.node[6].nic.mac1609_4 	TotalLostPackets 	0
scalar IntersectionExampleScenario.node[6].nic.mac1609_4 	DroppedPacketsInMac 	0
scalar IntersectionExampleScenario.node[6].nic.mac1609_4 	TooLittleTime 	0
scalar IntersectionExampleScenario.node[6].nic.mac1609_4 	TimesIntoBackoff 	0
scalar IntersectionExampleScenario.node[6].nic.mac1609_4 	SlotsBackoff 	0
scalar IntersectionExampleScenario.node[6].nic.mac1609_4 	NumInternalContention 	0
scalar IntersectionExampleScenario.node[6].nic.mac1609_4 	totalBusyTime 	0
scalar IntersectionExampleScenario.node[6].veinsmobility 	startTime 	28
scalar IntersectionExampleScenario.node[6].veinsmobility 	totalTime 	43
scalar IntersectionExampleScenario.node[6].veinsmobility 	stopTime 	71.25
scalar IntersectionExampleScenario.node[6].veinsmobility 	minSpeed 	5.5174255371094
scalar IntersectionExampleScenario.node[6].veinsmobility 	maxSpeed 	16.27499961853
scalar IntersectionExampleScenario.node[6].veinsmobility 	totalDistance 	544.83332803922
scalar IntersectionExampleScenario.node[6].veinsmobility 	totalCO2Emission 	140.37203482009
scalar IntersectionExampleScenario.node[5].appl 	VehicleRemoved 	0
scalar IntersectionExampleScenario.node[5].appl 	ArrivedAtDest 	1
scalar IntersectionExampleScenario.node[5].appl 	IntersectionEnterTime 	25.75
scalar IntersectionExampleScenario.node[5].appl 	IntersectionExitTime 	62.539849850145
scalar IntersectionExampleScenario.node[5].appl 	NumberOfCollisions 	0
scalar IntersectionExampleScenario.node[5].nic.phy80211p 	busyTime 	0
scalar IntersectionExampleScenario.node[5].nic.mac1609_4 	ReceivedUnicastPackets 	0
scalar IntersectionExampleScenario.node[5].nic.mac1609_4 	ReceivedBroadcasts 	0
scalar IntersectionExampleScenario.node[5].nic.mac1609_4 	SentPackets 	0
scalar IntersectionExampleScenario.node[5].nic.mac1609_4 	SNIRLostPackets 	0
scalar IntersectionExampleScenario.node[5].nic.mac1609_4 	RXTXLostPackets 	0
scalar IntersectionExampleScenario.node[5].nic.mac1609_4 	TotalLostPackets 	0
scalar IntersectionExampleScenario.node[5].nic.mac1609_4 	DroppedPacketsInMac 	0
scalar IntersectionExampleScenario.node[5].nic.mac1609_4 	TooLittleTime 	0
scalar IntersectionExampleScenario.node[5].nic.mac1609_4 	TimesIntoBackoff 	0
scalar IntersectionExampleScenario.node[5].nic.mac1609_4 	SlotsBackoff 	0
scalar IntersectionExampleScenario.node[5].nic.mac1609_4 	NumInternalContention 	0
scalar IntersectionExampleScenario.node[5].nic.mac1609_4 	totalBusyTime 	0
scalar IntersectionExampleScenario.node[5].veinsmobility 	startTime 	25.75
scalar IntersectionExampleScenario.node[5].veinsmobility 	totalTime 	53.5
scalar IntersectionExampleScenario.node[5].veinsmobility 	stopTime 	79.5
scalar IntersectionExampleScenario.node[5].veinsmobility 	minSpeed 	0
scalar IntersectionExampleScenario.node[5].veinsmobility 	maxSpeed 	15.64999961853
scalar IntersectionExampleScenario.node[5].veinsmobility 	totalDistance 	542.84239865691
scalar IntersectionExampleScenario.node[5].veinsmobility 	totalCO2Emission 	144.352413728
scalar IntersectionExampleScenario.node[7].appl 	VehicleRemoved 	0
scalar IntersectionExampleScenario.node[7].appl 	ArrivedAtDest 	1
scalar IntersectionExampleScenario.node[7].appl 	IntersectionEnterTime 	41.5
scalar IntersectionExampleScenario.node[7].appl 	IntersectionExitTime 	67.105997375184
scalar IntersectionExampleScenario.node[7].appl 	NumberOfCollisions 	0
scalar IntersectionExampleScenario.node[7].nic.phy80211p 	busyTime 	0
scalar IntersectionExampleScenario.node[7].nic.mac1609_4 	ReceivedUnicastPackets 	0
scalar IntersectionExampleScenario.node[7].nic.mac1609_4 	ReceivedBroadcasts 	0
scalar IntersectionExampleScenario.node[7].nic.mac1609_4 	SentPackets 	0
scalar IntersectionExampleScenario.node[7].nic.mac1609_4 	SNIRLostPackets 	0
scalar IntersectionExampleScenario.node[7].nic.mac1609_4 	RXTXLostPackets 	0
scalar IntersectionExampleScenario.node[7].nic.mac1609_4 	TotalLostPackets 	0
scalar IntersectionExampleScenario.node[7].nic.mac1609_4 	DroppedPacketsInMac 	0
scalar IntersectionExampleScenario.node[7].nic.mac1609_4 	TooLittleTime 	0
scalar IntersectionExampleScenario.node[7].nic.mac1609_4 	TimesIntoBackoff 	0
scalar IntersectionExampleScenario.node[7].nic.mac1609_4 	SlotsBackoff 	0
scalar IntersectionExampleScenario.node[7].nic.mac1609_4 	NumInternalContention 	0
scalar IntersectionExampleScenario.node[7].nic.mac1609_4 	totalBusyTime 	0
scalar IntersectionExampleScenario.node[7].veinsmobility 	startTime 	41.5
scalar IntersectionExampleScenario.node[7].veinsmobility 	totalTime 	43.25
scalar IntersectionExampleScenario.node[7].veinsmobility 	stopTime 	85
scalar IntersectionExampleScenario.node[7].veinsmobility 	minSpeed 	5.6500000953674
scalar IntersectionExampleScenario.node[7].veinsmobility 	maxSpeed 	14.625
scalar IntersectionExampleScenario.node[7].veinsmobility 	totalDistance 	543.66965678777
scalar IntersectionExampleScenario.node[7].veinsmobility 	totalCO2Emission 	129.31628891375
scalar IntersectionExampleScenario.node[11].appl 	VehicleRemoved 	0
scalar IntersectionExampleScenario.node[11].appl 	ArrivedAtDest 	1
scalar IntersectionExampleScenario.node[11].appl 	IntersectionEnterTime 	56.75
scalar IntersectionExampleScenario.node[11].appl 	IntersectionExitTime 	80.084691348893
scalar IntersectionExampleScenario.node[11].appl 	NumberOfCollisions 	0
scalar IntersectionExampleScenario.node[11].nic.phy80211p 	busyTime 	0
scalar IntersectionExampleScenario.node[11].nic.mac1609_4 	ReceivedUnicastPackets 	0
scalar IntersectionExampleScenario.node[11].nic.mac1609_4 	ReceivedBroadcasts 	0
scalar IntersectionExampleScenario.node[11].nic.mac1609_4 	SentPackets 	0
scalar IntersectionExampleScenario.node[11].nic.mac1609_4 	SNIRLostPackets 	0
scalar IntersectionExampleScenario.node[11].nic.mac1609_4 	RXTXLostPackets 	0
scalar IntersectionExampleScenario.node[11].nic.mac1609_4 	TotalLostPackets 	0
scalar IntersectionExampleScenario.node[11].nic.mac1609_4 	DroppedPacketsInMac 	0
scalar IntersectionExampleScenario.node[11].nic.mac1609_4 	TooLittleTime 	0
scalar IntersectionExampleScenario.node[11].nic.mac1609_4 	TimesIntoBackoff 	0
scalar IntersectionExampleScenario.node[11].nic.mac1609_4 	SlotsBackoff 	0
scalar IntersectionExampleScenario.node[11].nic.mac1609_4 	NumInternalContention 	0
scalar IntersectionExampleScenario.node[11].nic.mac1609_4 	totalBusyTime 	0
scalar IntersectionExampleScenario.node[11].veinsmobility 	startTime 	56.75
scalar IntersectionExampleScenario.node[11].veinsmobility 	totalTime 	39.75
scalar IntersectionExampleScenario.node[11].veinsmobility 	stopTime 	96.75
scalar IntersectionExampleScenario.node[11].veinsmobility 	minSpeed 	5.6500000953674
scalar IntersectionExampleScenario.node[11].veinsmobility 	maxSpeed 	15.02499961853
scalar IntersectionExampleScenario.node[11].veinsmobility 	totalDistance 	551.45179748535
scalar IntersectionExampleScenario.node[11].veinsmobility 	totalCO2Emission 	114.13526844764
scalar IntersectionExampleScenario.node[12].appl 	VehicleRemoved 	0
scalar IntersectionExampleScenario.node[12].appl 	ArrivedAtDest 	1
scalar IntersectionExampleScenario.node[12].appl 	IntersectionEnterTime 	58.25
scalar IntersectionExampleScenario.node[12].appl 	IntersectionExitTime 	82.006335048907
scalar IntersectionExampleScenario.node[12].appl 	NumberOfCollisions 	0
scalar IntersectionExampleScenario.node[12].nic.phy80211p 	busyTime 	0
scalar IntersectionExampleScenario.node[12].nic.mac1609_4 	ReceivedUnicastPackets 	0
scalar IntersectionExampleScenario.node[12].nic.mac1609_4 	ReceivedBroadcasts 	0
scalar IntersectionExampleScenario.node[12].nic.mac1609_4 	SentPackets 	0
scalar IntersectionExampleScenario.node[12].nic.mac1609_4 	SNIRLostPackets 	0
scalar IntersectionExampleScenario.node[12].nic.mac1609_4 	RXTXLostPackets 	0
scalar IntersectionExampleScenario.node[12].nic.mac1609_4 	TotalLostPackets 	0
scalar IntersectionExampleScenario.node[12].nic.mac1609_4 	DroppedPacketsInMac 	0
scalar IntersectionExampleScenario.node[12].nic.mac1609_4 	TooLittleTime 	0
scalar IntersectionExampleScenario.node[12].nic.mac1609_4 	TimesIntoBackoff 	0
scalar IntersectionExampleScenario.node[12].nic.mac1609_4 	SlotsBackoff 	0
scalar IntersectionExampleScenario.node[12].nic.mac1609_4 	NumInternalContention 	0
scalar IntersectionExampleScenario.node[12].nic.mac1609_4 	totalBusyTime 	0
scalar IntersectionExampleScenario.node[12].veinsmobility 	startTime 	58.25
scalar IntersectionExampleScenario.node[12].veinsmobility 	totalTime 	39.5
scalar IntersectionExampleScenario.node[12].veinsmobility 	stopTime 	98
scalar IntersectionExampleScenario.node[12].veinsmobility 	minSpeed 	5.6500000953674
scalar IntersectionExampleScenario.node[12].veinsmobility 	maxSpeed 	16.05838394165
scalar IntersectionExampleScenario.node[12].veinsmobility 	totalDistance 	572.07510375977
scalar IntersectionExampleScenario.node[12].veinsmobility 	totalCO2Emission 	125.18628719696
scalar IntersectionExampleScenario.node[9].appl 	VehicleRemoved 	0
scalar IntersectionExampleScenario.node[9].appl 	ArrivedAtDest 	1
scalar IntersectionExampleScenario.node[9].appl 	IntersectionEnterTime 	54.5
scalar IntersectionExampleScenario.node[9].appl 	IntersectionExitTime 	87.349554468878
scalar IntersectionExampleScenario.node[9].appl 	NumberOfCollisions 	0
scalar IntersectionExampleScenario.node[9].nic.phy80211p 	busyTime 	0
scalar IntersectionExampleScenario.node[9].nic.mac1609_4 	ReceivedUnicastPackets 	0
scalar IntersectionExampleScenario.node[9].nic.mac1609_4 	ReceivedBroadcasts 	0
scalar IntersectionExampleScenario.node[9].nic.mac1609_4 	SentPackets 	0
scalar IntersectionExampleScenario.node[9].nic.mac1609_4 	SNIRLostPackets 	0
scalar IntersectionExampleScenario.node[9].nic.mac1609_4 	RXTXLostPackets 	0
scalar IntersectionExampleScenario.node[9].nic.mac1609_4 	TotalLostPackets 	0
scalar IntersectionExampleScenario.node[9].nic.mac1609_4 	DroppedPacketsInMac 	0
scalar IntersectionExampleScenario.node[9].nic.mac1609_4 	TooLittleTime 	0
scalar IntersectionExampleScenario.node[9].nic.mac1609_4 	TimesIntoBackoff 	0
scalar IntersectionExampleScenario.node[9].nic.mac1609_4 	SlotsBackoff 	0
scalar IntersectionExampleScenario.node[9].nic.mac1609_4 	NumInternalContention 	0
scalar IntersectionExampleScenario.node[9].nic.mac1609_4 	totalBusyTime 	0
scalar IntersectionExampleScenario.node[9].veinsmobility 	startTime 	54.5
scalar IntersectionExampleScenario.node[9].veinsmobility 	totalTime 	48.5
scalar IntersectionExampleScenario.node[9].veinsmobility 	stopTime 	103.25
scalar IntersectionExampleScenario.node[9].veinsmobility 	minSpeed 	0
scalar IntersectionExampleScenario.node[9].veinsmobility 	maxSpeed 	16
scalar IntersectionExampleScenario.node[9].veinsmobility 	totalDistance 	550.96620287051
scalar IntersectionExampleScenario.node[9].veinsmobility 	totalCO2Emission 	144.23100023551
scalar IntersectionExampleScenario.node[10].appl 	VehicleRemoved 	0
scalar IntersectionExampleScenario.node[10].appl 	ArrivedAtDest 	1
scalar IntersectionExampleScenario.node[10].appl 	IntersectionEnterTime 	55.5
scalar IntersectionExampleScenario.node[10].appl 	IntersectionExitTime 	89.309556646127
scalar IntersectionExampleScenario.node[10].appl 	NumberOfCollisions 	0
scalar IntersectionExampleScenario.node[10].nic.phy80211p 	busyTime 	0
scalar IntersectionExampleScenario.node[10].nic.mac1609_4 	ReceivedUnicastPackets 	0
scalar IntersectionExampleScenario.node[10].nic.mac1609_4 	ReceivedBroadcasts 	0
scalar IntersectionExampleScenario.node[10].nic.mac1609_4 	SentPackets 	0
scalar IntersectionExampleScenario.node[10].nic.mac1609_4 	SNIRLostPackets 	0
scalar IntersectionExampleScenario.node[10].nic.mac1609_4 	RXTXLostPackets 	0
scalar IntersectionExampleScenario.node[10].nic.mac1609_4 	TotalLostPackets 	0
scalar IntersectionExampleScenario.node[10].nic.mac1609_4 	DroppedPacketsInMac 	0
scalar IntersectionExampleScenario.node[10].nic.mac1609_4 	TooLittleTime 	0
scalar IntersectionExampleScenario.node[10].nic.mac1609_4 	TimesIntoBackoff 	0
scalar IntersectionExampleScenario.node[10].nic.mac1609_4 	SlotsBackoff 	0
scalar IntersectionExampleScenario.node[10].nic.mac1609_4 	NumInternalContention 	0
scalar IntersectionExampleScenario.node[10].nic.mac1609_4 	totalBusyTime 	0
scalar IntersectionExampleScenario.node[10].veinsmobility 	startTime 	55.5
scalar IntersectionExampleScenario.node[10].veinsmobility 	totalTime 	49.5
scalar IntersectionExampleScenario.node[10].veinsmobility 	stopTime 	105.25
scalar IntersectionExampleScenario.node[10].veinsmobility 	minSpeed 	0
scalar IntersectionExampleScenario.node[10].veinsmobility 	maxSpeed 	16
scalar IntersectionExampleScenario.node[10].veinsmobility 	totalDistance 	571.83147895328
scalar IntersectionExampleScenario.node[10].veinsmobility 	totalCO2Emission 	147.18777282519
scalar IntersectionExampleScenario.node[14].appl 	VehicleRemoved 	0
scalar IntersectionExampleScenario.node[14].appl 	ArrivedAtDest 	1
scalar IntersectionExampleScenario.node[14].appl 	IntersectionEnterTime 	66.25
scalar IntersectionExampleScenario.node[14].appl 	IntersectionExitTime 	91.276850448048
scalar IntersectionExampleScenario.node[14].appl 	NumberOfCollisions 	0
scalar IntersectionExampleScenario.node[14].nic.phy80211p 	busyTime 	0
scalar IntersectionExampleScenario.node[14].nic.mac1609_4 	ReceivedUnicastPackets 	0
scalar IntersectionExampleScenario.node[14].nic.mac1609_4 	ReceivedBroadcasts 	0
scalar IntersectionExampleScenario.node[14].nic.mac1609_4 	SentPackets 	0
scalar IntersectionExampleScenario.node[14].nic.mac1609_4 	SNIRLostPackets 	0
scalar IntersectionExampleScenario.node[14].nic.mac1609_4 	RXTXLostPackets 	0
scalar IntersectionExampleScenario.node[14].nic.mac1609_4 	TotalLostPackets 	0
scalar IntersectionExampleScenario.node[14].nic.mac1609_4 	DroppedPacketsInMac 	0
scalar IntersectionExampleScenario.node[14].nic.mac1609_4 	TooLittleTime 	0
scalar IntersectionExampleScenario.node[14].nic.mac1609_4 	TimesIntoBackoff 	0
scalar IntersectionExampleScenario.node[14].nic.mac1609_4 	SlotsBackoff 	0
scalar IntersectionExampleScenario.node[14].nic.mac1609_4 	NumInternalContention 	0
scalar IntersectionExampleScenario.node[14].nic.mac1609_4 	totalBusyTime 	0
scalar IntersectionExampleScenario.node[14].veinsmobility 	startTime 	66.25
scalar IntersectionExampleScenario.node[14].veinsmobility 	totalTime 	41.25
scalar IntersectionExampleScenario.node[14].veinsmobility 	stopTime 	107.75
scalar IntersectionExampleScenario.node[14].veinsmobility 	minSpeed 	5.6500000953674
scalar IntersectionExampleScenario.node[14].veinsmobility 	maxSpeed 	15.5
scalar IntersectionExampleScenario.node[14].veinsmobility 	totalDistance 	554.03104400635
scalar IntersectionExampleScenario.node[14].veinsmobility 	totalCO2Emission 	133.35425221521
scalar IntersectionExampleScenario.node[8].appl 	VehicleRemoved 	0
scalar IntersectionExampleScenario.node[8].appl 	ArrivedAtDest 	1
scalar IntersectionExampleScenario.node[8].appl 	IntersectionEnterTime 	50.75
scalar IntersectionExampleScenario.node[8].appl 	IntersectionExitTime 	97.618637799751
scalar IntersectionExampleScenario.node[8].appl 	NumberOfCollisions 	0
scalar IntersectionExampleScenario.node[8].nic.phy80211p 	busyTime 	0
scalar IntersectionExampleScenario.node[8].nic.mac1609_4 	ReceivedUnicastPackets 	0
scalar IntersectionExampleScenario.node[8].nic.mac1609_4 	ReceivedBroadcasts 	0
scalar IntersectionExampleScenario.node[8].nic.mac1609_4 	SentPackets 	0
scalar IntersectionExampleScenario.node[8].nic.mac1609_4 	SNIRLostPackets 	0
scalar IntersectionExampleScenario.node[8].nic.mac1609_4 	RXTXLostPackets 	0
scalar IntersectionExampleScenario.node[8].nic.mac1609_4 	TotalLostPackets 	0
scalar IntersectionExampleScenario.node[8].nic.mac1609_4 	DroppedPacketsInMac 	0
scalar IntersectionExampleScenario.node[8].nic.mac1609_4 	TooLittleTime 	0
scalar IntersectionExampleScenario.node[8].nic.mac1609_4 	TimesIntoBackoff 	0
scalar IntersectionExampleScenario.node[8].nic.mac1609_4 	SlotsBackoff 	0
scalar IntersectionExampleScenario.node[8].nic.mac1609_4 	NumInternalContention 	0
scalar IntersectionExampleScenario.node[8].nic.mac1609_4 	totalBusyTime 	0
scalar IntersectionExampleScenario.node[8].veinsmobility 	startTime 	50.75
scalar IntersectionExampleScenario.node[8].veinsmobility 	totalTime 	64
scalar IntersectionExampleScenario.node[8].veinsmobility 	stopTime 	115
scalar IntersectionExampleScenario.node[8].veinsmobility 	minSpeed 	0
scalar IntersectionExampleScenario.node[8].veinsmobility 	maxSpeed 	15.25
scalar IntersectionExampleScenario.node[8].veinsmobility 	totalDistance 	545.45714475066
scalar IntersectionExampleScenario.node[8].veinsmobility 	totalCO2Emission 	152.34605012984
scalar IntersectionExampleScenario.node[15].appl 	VehicleRemoved 	0
scalar IntersectionExampleScenario.node[15].appl 	ArrivedAtDest 	1
scalar IntersectionExampleScenario.node[15].appl 	IntersectionEnterTime 	75.25
scalar IntersectionExampleScenario.node[15].appl 	IntersectionExitTime 	101.34007069177
scalar IntersectionExampleScenario.node[15].appl 	NumberOfCollisions 	0
scalar IntersectionExampleScenario.node[15].nic.phy80211p 	busyTime 	0
scalar IntersectionExampleScenario.node[15].nic.mac1609_4 	ReceivedUnicastPackets 	0
scalar IntersectionExampleScenario.node[15].nic.mac1609_4 	ReceivedBroadcasts 	0
scalar IntersectionExampleScenario.node[15].nic.mac1609_4 	SentPackets 	0
scalar IntersectionExampleScenario.node[15].nic.mac1609_4 	SNIRLostPackets 	0
scalar IntersectionExampleScenario.node[15].nic.mac1609_4 	RXTXLostPackets 	0
scalar IntersectionExampleScenario.node[15].nic.mac1609_4 	TotalLostPackets 	0
scalar IntersectionExampleScenario.node[15].nic.mac1609_4 	DroppedPacketsInMac 	0
scalar IntersectionExampleScenario.node[15].nic.mac1609_4 	TooLittleTime 	0
scalar IntersectionExampleScenario.node[15].nic.mac1609_4 	TimesIntoBackoff 	0
scalar IntersectionExampleScenario.node[15].nic.mac1609_4 	SlotsBackoff 	0
scalar IntersectionExampleScenario.node[15].nic.mac1609_4 	NumInternalContention 	0
scalar IntersectionExampleScenario.node[15].nic.mac1609_4 	totalBusyTime 	0
scalar IntersectionExampleScenario.node[15].veinsmobility 	startTime 	75.25
scalar IntersectionExampleScenario.node[15].veinsmobility 	totalTime 	42.5
scalar IntersectionExampleScenario.node[15].veinsmobility 	stopTime 	118
scalar IntersectionExampleScenario.node[15].veinsmobility 	minSpeed 	5.6500000953674
scalar IntersectionExampleScenario.node[15].veinsmobility 	maxSpeed 	15.64999961853
scalar IntersectionExampleScenario.node[15].veinsmobility 	totalDistance 	543.28476247884
scalar IntersectionExampleScenario.node[15].veinsmobility 	totalCO2Emission 	136.29055372344
scalar IntersectionExampleScenario.node[13].appl 	VehicleRemoved 	0
scalar IntersectionExampleScenario.node[13].appl 	ArrivedAtDest 	1
scalar IntersectionExampleScenario.node[13].appl 	IntersectionEnterTime 	65.5
scalar IntersectionExampleScenario.node[13].appl 	IntersectionExitTime 	109.33318600303
scalar IntersectionExampleScenario.node[13].appl 	NumberOfCollisions 	0
scalar IntersectionExampleScenario.node[13].nic.phy80211p 	busyTime 	0
scalar IntersectionExampleScenario.node[13].nic.mac1609_4 	ReceivedUnicastPackets 	0
scalar IntersectionExampleScenario.node[13].nic.mac1609_4 	ReceivedBroadcasts 	0
scalar IntersectionExampleScenario.node[13].nic.mac1609_4 	SentPackets 	0
scalar IntersectionExampleScenario.node[13].nic.mac1609_4 	SNIRLostPackets 	0
scalar IntersectionExampleScenario.node[13].nic.mac1609_4 	RXTXLostPackets 	0
scalar IntersectionExampleScenario.node[13].nic.mac1609_4 	TotalLostPackets 	0
scalar IntersectionExampleScenario.node[13].nic.mac1609_4 	DroppedPacketsInMac 	0
scalar IntersectionExampleScenario.node[13].nic.mac1609_4 	TooLittleTime 	0
scalar IntersectionExampleScenario.node[13].nic.mac1609_4 	TimesIntoBackoff 	0
scalar IntersectionExampleScenario.node[13].nic.mac1609_4 	SlotsBackoff 	0
scalar IntersectionExampleScenario.node[13].nic.mac1609_4 	NumInternalContention 	0
scalar IntersectionExampleScenario.node[13].nic.mac1609_4 	totalBusyTime 	0
scalar IntersectionExampleScenario.node[13].veinsmobility 	startTime 	65.5
scalar IntersectionExampleScenario.node[13].veinsmobility 	totalTime 	60.25
scalar IntersectionExampleScenario.node[13].veinsmobility 	stopTime 	126
scalar IntersectionExampleScenario.node[13].veinsmobility 	minSpeed 	0
scalar IntersectionExampleScenario.node[13].veinsmobility 	maxSpeed 	15.375
scalar IntersectionExampleScenario.node[13].veinsmobility 	totalDistance 	554.77796936035
scalar IntersectionExampleScenario.node[13].veinsmobility 	totalCO2Emission 	149.79790310698
scalar IntersectionExampleScenario.node[16].appl 	VehicleRemoved 	0
scalar IntersectionExampleScenario.node[16].appl 	ArrivedAtDest 	1
scalar IntersectionExampleScenario.node[16].appl 	IntersectionEnterTime 	79.75
scalar IntersectionExampleScenario.node[16].appl 	IntersectionExitTime 	110.58134757413
scalar IntersectionExampleScenario.node[16].appl 	NumberOfCollisions 	0
scalar IntersectionExampleScenario.node[16].nic.phy80211p 	busyTime 	0
scalar IntersectionExampleScenario.node[16].nic.mac1609_4 	ReceivedUnicastPackets 	0
scalar IntersectionExampleScenario.node[16].nic.mac1609_4 	ReceivedBroadcasts 	0
scalar IntersectionExampleScenario.node[16].nic.mac1609_4 	SentPackets 	0
scalar IntersectionExampleScenario.node[16].nic.mac1609_4 	SNIRLostPackets 	0
scalar IntersectionExampleScenario.node[16].nic.mac1609_4 	RXTXLostPackets 	0
scalar IntersectionExampleScenario.node[16].nic.mac1609_4 	TotalLostPackets 	0
scalar IntersectionExampleScenario.node[16].nic.mac1609_4 	DroppedPacketsInMac 	0
scalar IntersectionExampleScenario.node[16].nic.mac1609_4 	TooLittleTime 	0
scalar IntersectionExampleScenario.node[16].nic.mac1609_4 	TimesIntoBackoff 	0
scalar IntersectionExampleScenario.node[16].nic.mac1609_4 	SlotsBackoff 	0
scalar IntersectionExampleScenario.node[16].nic.mac1609_4 	NumInternalContention 	0
scalar IntersectionExampleScenario.node[16].nic.mac1609_4 	totalBusyTime 	0
scalar IntersectionExampleScenario.node[16].veinsmobility 	startTime 	79.75
scalar IntersectionExampleScenario.node[16].veinsmobility 	totalTime 	46.75
scalar IntersectionExampleScenario.node[16].veinsmobility 	stopTime 	126.75
scalar IntersectionExampleScenario.node[16].veinsmobility 	minSpeed 	2.0172512531281
scalar IntersectionExampleScenario.node[16].veinsmobility 	maxSpeed 	16.5
scalar IntersectionExampleScenario.node[16].veinsmobility 	totalDistance 	543.52097740916
scalar IntersectionExampleScenario.node[16].veinsmobility 	totalCO2Emission 	141.34242410528
scalar IntersectionExampleScenario.node[18].appl 	VehicleRemoved 	0
scalar IntersectionExampleScenario.node[18].appl 	ArrivedAtDest 	1
scalar IntersectionExampleScenario.node[18].appl 	IntersectionEnterTime 	80.75
scalar IntersectionExampleScenario.node[18].appl 	IntersectionExitTime 	113.12173127744
scalar IntersectionExampleScenario.node[18].appl 	NumberOfCollisions 	0
scalar IntersectionExampleScenario.node[18].nic.phy80211p 	busyTime 	0
scalar IntersectionExampleScenario.node[18].nic.mac1609_4 	ReceivedUnicastPackets 	0
scalar IntersectionExampleScenario.node[18].nic.mac1609_4 	ReceivedBroadcasts 	0
scalar IntersectionExampleScenario.node[18].nic.mac1609_4 	SentPackets 	0
scalar IntersectionExampleScenario.node[18].nic.mac1609_4 	SNIRLostPackets 	0
scalar IntersectionExampleScenario.node[18].nic.mac1609_4 	RXTXLostPackets 	0
scalar IntersectionExampleScenario.node[18].nic.mac1609_4 	TotalLostPackets 	0
scalar IntersectionExampleScenario.node[18].nic.mac1609_4 	DroppedPacketsInMac 	0
scalar IntersectionExampleScenario.node[18].nic.mac1609_4 	TooLittleTime 	0
scalar IntersectionExampleScenario.node[18].nic.mac1609_4 	TimesIntoBackoff 	0
scalar IntersectionExampleScenario.node[18].nic.mac1609_4 	SlotsBackoff 	0
scalar IntersectionExampleScenario.node[18].nic.mac1609_4 	NumInternalContention 	0
scalar IntersectionExampleScenario.node[18].nic.mac1609_4 	totalBusyTime 	0
scalar IntersectionExampleScenario.node[18].veinsmobility 	startTime 	80.75
scalar IntersectionExampleScenario.node[18].veinsmobility 	totalTime 	49
scalar IntersectionExampleScenario.node[18].veinsmobility 	stopTime 	130
scalar IntersectionExampleScenario.node[18].veinsmobility 	minSpeed 	3.7100262641907
scalar IntersectionExampleScenario.node[18].veinsmobility 	maxSpeed 	15.875
scalar IntersectionExampleScenario.node[18].veinsmobility 	totalDistance 	568.98163045268
scalar IntersectionExampleScenario.node[18].veinsmobility 	totalCO2Emission 	143.05356173544
scalar IntersectionExampleScenario.node[19].appl 	VehicleRemoved 	0
scalar IntersectionExampleScenario.node[19].appl 	ArrivedAtDest 	1
scalar IntersectionExampleScenario.node[19].appl 	IntersectionEnterTime 	84.25
scalar IntersectionExampleScenario.node[19].appl 	IntersectionExitTime 	114.76744387313
scalar IntersectionExampleScenario.node[19].appl 	NumberOfCollisions 	0
scalar IntersectionExampleScenario.node[19].nic.phy80211p 	busyTime 	0
scalar IntersectionExampleScenario.node[19].nic.mac1609_4 	ReceivedUnicastPackets 	0
scalar IntersectionExampleScenario.node[19].nic.mac1609_4 	ReceivedBroadcasts 	0
scalar IntersectionExampleScenario.node[19].nic.mac1609_4 	SentPackets 	0
scalar IntersectionExampleScenario.node[19].nic.mac1609_4 	SNIRLostPackets 	0
scalar IntersectionExampleScenario.node[19].nic.mac1609_4 	RXTXLostPackets 	0
scalar IntersectionExampleScenario.node[19].nic.mac1609_4 	TotalLostPackets 	0
scalar IntersectionExampleScenario.node[19].nic.mac1609_4 	DroppedPacketsInMac 	0
scalar IntersectionExampleScenario.node[19].nic.mac1609_4 	TooLittleTime 	0
scalar IntersectionExampleScenario.node[19].nic.mac1609_4 	TimesIntoBackoff 	0
scalar IntersectionExampleScenario.node[19].nic.mac1609_4 	SlotsBackoff 	0
scalar IntersectionExampleScenario.node[19].nic.mac1609_4 	NumInternalContention 	0
scalar IntersectionExampleScenario.node[19].nic.mac1609_4 	totalBusyTime 	0
scalar IntersectionExampleScenario.node[19].veinsmobility 	startTime 	84.25
scalar IntersectionExampleScenario.node[19].veinsmobility 	totalTime 	46.5
scalar IntersectionExampleScenario.node[19].veinsmobility 	stopTime 	131
scalar IntersectionExampleScenario.node[19].veinsmobility 	minSpeed 	2.7646133899689
scalar IntersectionExampleScenario.node[19].veinsmobility 	maxSpeed 	16
scalar IntersectionExampleScenario.node[19].veinsmobility 	totalDistance 	571.93776410177
scalar IntersectionExampleScenario.node[19].veinsmobility 	totalCO2Emission 	146.51886178963
scalar IntersectionExampleScenario.node[22].appl 	VehicleRemoved 	0
scalar IntersectionExampleScenario.node[22].appl 	ArrivedAtDest 	1
scalar IntersectionExampleScenario.node[22].appl 	IntersectionEnterTime 	93
scalar IntersectionExampleScenario.node[22].appl 	IntersectionExitTime 	115.58100705536
scalar IntersectionExampleScenario.node[22].appl 	NumberOfCollisions 	0
scalar IntersectionExampleScenario.node[22].nic.phy80211p 	busyTime 	0
scalar IntersectionExampleScenario.node[22].nic.mac1609_4 	ReceivedUnicastPackets 	0
scalar IntersectionExampleScenario.node[22].nic.mac1609_4 	ReceivedBroadcasts 	0
scalar IntersectionExampleScenario.node[22].nic.mac1609_4 	SentPackets 	0
scalar IntersectionExampleScenario.node[22].nic.mac1609_4 	SNIRLostPackets 	0
scalar IntersectionExampleScenario.node[22].nic.mac1609_4 	RXTXLostPackets 	0
scalar IntersectionExampleScenario.node[22].nic.mac1609_4 	TotalLostPackets 	0
scalar IntersectionExampleScenario.node[22].nic.mac1609_4 	DroppedPacketsInMac 	0
scalar IntersectionExampleScenario.node[22].nic.mac1609_4 	TooLittleTime 	0
scalar IntersectionExampleScenario.node[22].nic.mac1609_4 	TimesIntoBackoff 	0
scalar IntersectionExampleScenario.node[22].nic.mac1609_4 	SlotsBackoff 	0
scalar IntersectionExampleScenario.node[22].nic.mac1609_4 	NumInternalContention 	0
scalar IntersectionExampleScenario.node[22].nic.mac1609_4 	totalBusyTime 	0
scalar IntersectionExampleScenario.node[22].veinsmobility 	startTime 	93
scalar IntersectionExampleScenario.node[22].veinsmobility 	totalTime 	38
scalar IntersectionExampleScenario.node[22].veinsmobility 	stopTime 	131.25
scalar IntersectionExampleScenario.node[22].veinsmobility 	minSpeed 	5.6500000953674
scalar IntersectionExampleScenario.node[22].veinsmobility 	maxSpeed 	16.125
scalar IntersectionExampleScenario.node[22].veinsmobility 	totalDistance 	551.66519927979
scalar IntersectionExampleScenario.node[22].veinsmobility 	totalCO2Emission 	119.99297835631
scalar IntersectionExampleScenario.node[17].appl 	VehicleRemoved 	0
scalar IntersectionExampleScenario.node[17].appl 	ArrivedAtDest 	1
scalar IntersectionExampleScenario.node[17].appl 	IntersectionEnterTime 	80
scalar IntersectionExampleScenario.node[17].appl 	IntersectionExitTime 	122.28556001134
scalar IntersectionExampleScenario.node[17].appl 	NumberOfCollisions 	0
scalar IntersectionExampleScenario.node[17].nic.phy80211p 	busyTime 	0
scalar IntersectionExampleScenario.node[17].nic.mac1609_4 	ReceivedUnicastPackets 	0
scalar IntersectionExampleScenario.node[17].nic.mac1609_4 	ReceivedBroadcasts 	0
scalar IntersectionExampleScenario.node[17].nic.mac1609_4 	SentPackets 	0
scalar IntersectionExampleScenario.node[17].nic.mac1609_4 	SNIRLostPackets 	0
scalar IntersectionExampleScenario.node[17].nic.mac1609_4 	RXTXLostPackets 	0
scalar IntersectionExampleScenario.node[17].nic.mac1609_4 	TotalLostPackets 	0
scalar IntersectionExampleScenario.node[17].nic.mac1609_4 	DroppedPacketsInMac 	0
scalar IntersectionExampleScenario.node[17].nic.mac1609_4 	TooLittleTime 	0
scalar IntersectionExampleScenario.node[17].nic.mac1609_4 	TimesIntoBackoff 	0
scalar IntersectionExampleScenario.node[17].nic.mac1609_4 	SlotsBackoff 	0
scalar IntersectionExampleScenario.node[17].nic.mac1609_4 	NumInternalContention 	0
scalar IntersectionExampleScenario.node[17].nic.mac1609_4 	totalBusyTime 	0
scalar IntersectionExampleScenario.node[17].veinsmobility 	startTime 	80
scalar IntersectionExampleScenario.node[17].veinsmobility 	totalTime 	57.75
scalar IntersectionExampleScenario.node[17].veinsmobility 	stopTime 	138
scalar IntersectionExampleScenario.node[17].veinsmobility 	minSpeed 	0
scalar IntersectionExampleScenario.node[17].veinsmobility 	maxSpeed 	16.27499961853
scalar IntersectionExampleScenario.node[17].veinsmobility 	totalDistance 	551.43729400635
scalar IntersectionExampleScenario.node[17].veinsmobility 	totalCO2Emission 	154.08964344961
scalar IntersectionExampleScenario.node[21].appl 	VehicleRemoved 	0
scalar IntersectionExampleScenario.node[21].appl 	ArrivedAtDest 	1
scalar IntersectionExampleScenario.node[21].appl 	IntersectionEnterTime 	92.25
scalar IntersectionExampleScenario.node[21].appl 	IntersectionExitTime 	123.59923405081
scalar IntersectionExampleScenario.node[21].appl 	NumberOfCollisions 	0
scalar IntersectionExampleScenario.node[21].nic.phy80211p 	busyTime 	0
scalar IntersectionExampleScenario.node[21].nic.mac1609_4 	ReceivedUnicastPackets 	0
scalar IntersectionExampleScenario.node[21].nic.mac1609_4 	ReceivedBroadcasts 	0
scalar IntersectionExampleScenario.node[21].nic.mac1609_4 	SentPackets 	0
scalar IntersectionExampleScenario.node[21].nic.mac1609_4 	SNIRLostPackets 	0
scalar IntersectionExampleScenario.node[21].nic.mac1609_4 	RXTXLostPackets 	0
scalar IntersectionExampleScenario.node[21].nic.mac1609_4 	TotalLostPackets 	0
scalar IntersectionExampleScenario.node[21].nic.mac1609_4 	DroppedPacketsInMac 	0
scalar IntersectionExampleScenario.node[21].nic.mac1609_4 	TooLittleTime 	0
scalar IntersectionExampleScenario.node[21].nic.mac1609_4 	TimesIntoBackoff 	0
scalar IntersectionExampleScenario.node[21].nic.mac1609_4 	SlotsBackoff 	0
scalar IntersectionExampleScenario.node[21].nic.mac1609_4 	NumInternalContention 	0
scalar IntersectionExampleScenario.node[21].nic.mac1609_4 	totalBusyTime 	0
scalar IntersectionExampleScenario.node[21].veinsmobility 	startTime 	92.25
scalar IntersectionExampleScenario.node[21].veinsmobility 	totalTime 	47.5
scalar IntersectionExampleScenario.node[21].veinsmobility 	stopTime 	140
scalar IntersectionExampleScenario.node[21].veinsmobility 	minSpeed 	2.0317351818085
scalar IntersectionExampleScenario.node[21].veinsmobility 	maxSpeed 	15.64999961853
scalar IntersectionExampleScenario.node[21].veinsmobility 	totalDistance 	549.57409819477
scalar IntersectionExampleScenario.node[21].veinsmobility 	totalCO2Emission 	135.87478277302
scalar IntersectionExampleScenario.node[23].appl 	VehicleRemoved 	0
scalar IntersectionExampleScenario.node[23].appl 	ArrivedAtDest 	1
scalar IntersectionExampleScenario.node[23].appl 	IntersectionEnterTime 	93.25
scalar IntersectionExampleScenario.node[23].appl 	IntersectionExitTime 	125.54176036178
scalar IntersectionExampleScenario.node[23].appl 	NumberOfCollisions 	0
scalar IntersectionExampleScenario.node[23].nic.phy80211p 	busyTime 	0
scalar IntersectionExampleScenario.node[23].nic.mac1609_4 	ReceivedUnicastPackets 	0
scalar IntersectionExampleScenario.node[23].nic.mac1609_4 	ReceivedBroadcasts 	0
scalar IntersectionExampleScenario.node[23].nic.mac1609_4 	SentPackets 	0
scalar IntersectionExampleScenario.node[23].nic.mac1609_4 	SNIRLostPackets 	0
scalar IntersectionExampleScenario.node[23].nic.mac1609_4 	RXTXLostPackets 	0
scalar IntersectionExampleScenario.node[23].nic.mac1609_4 	TotalLostPackets 	0
scalar IntersectionExampleScenario.node[23].nic.mac1609_4 	DroppedPacketsInMac 	0
scalar IntersectionExampleScenario.node[23].nic.mac1609_4 	TooLittleTime 	0
scalar IntersectionExampleScenario.node[23].nic.mac1609_4 	TimesIntoBackoff 	0
scalar IntersectionExampleScenario.node[23].nic.mac1609_4 	SlotsBackoff 	0
scalar IntersectionExampleScenario.node[23].nic.mac1609_4 	NumInternalContention 	0
scalar IntersectionExampleScenario.node[23].nic.mac1609_4 	totalBusyTime 	0
scalar IntersectionExampleScenario.node[23].veinsmobility 	startTime 	93.25
scalar IntersectionExampleScenario.node[23].veinsmobility 	totalTime 	48.5
scalar IntersectionExampleScenario.node[23].veinsmobility 	stopTime 	142
scalar IntersectionExampleScenario.node[23].veinsmobility 	minSpeed 	3.551388502121
scalar IntersectionExampleScenario.node[23].veinsmobility 	maxSpeed 	15.5
scalar IntersectionExampleScenario.node[23].veinsmobility 	totalDistance 	576.54576873779
scalar IntersectionExampleScenario.node[23].veinsmobility 	totalCO2Emission 	138.57518150201
scalar IntersectionExampleScenario.node[25].appl 	VehicleRemoved 	0
scalar IntersectionExampleScenario.node[25].appl 	ArrivedAtDest 	1
scalar IntersectionExampleScenario.node[25].appl 	IntersectionEnterTime 	101.5
scalar IntersectionExampleScenario.node[25].appl 	IntersectionExitTime 	128.10561731551
scalar IntersectionExampleScenario.node[25].appl 	NumberOfCollisions 	0
scalar IntersectionExampleScenario.node[25].nic.phy80211p 	busyTime 	0
scalar IntersectionExampleScenario.node[25].nic.mac1609_4 	ReceivedUnicastPackets 	0
scalar IntersectionExampleScenario.node[25].nic.mac1609_4 	ReceivedBroadcasts 	0
scalar IntersectionExampleScenario.node[25].nic.mac1609_4 	SentPackets 	0
scalar IntersectionExampleScenario.node[25].nic.mac1609_4 	SNIRLostPackets 	0
scalar IntersectionExampleScenario.node[25].nic.mac1609_4 	RXTXLostPackets 	0
scalar IntersectionExampleScenario.node[25].nic.mac1609_4 	TotalLostPackets 	0
scalar IntersectionExampleScenario.node[25].nic.mac1609_4 	DroppedPacketsInMac 	0
scalar IntersectionExampleScenario.node[25].nic.mac1609_4 	TooLittleTime 	0
scalar IntersectionExampleScenario.node[25].nic.mac1609_4 	TimesIntoBackoff 	0
scalar IntersectionExampleScenario.node[25].nic.mac1609_4 	SlotsBackoff 	0
scalar IntersectionExampleScenario.node[25].nic.mac1609_4 	NumInternalContention 	0
scalar IntersectionExampleScenario.node[25].nic.mac1609_4 	totalBusyTime 	0
scalar IntersectionExampleScenario.node[25].veinsmobility 	startTime 	101.5
scalar IntersectionExampleScenario.node[25].veinsmobility 	totalTime 	42.25
scalar IntersectionExampleScenario.node[25].veinsmobility 	stopTime 	144
scalar IntersectionExampleScenario.node[25].veinsmobility 	minSpeed 	5.6500000953674
scalar IntersectionExampleScenario.node[25].veinsmobility 	maxSpeed 	15.5
scalar IntersectionExampleScenario.node[25].veinsmobility 	totalDistance 	551.32920074463
scalar IntersectionExampleScenario.node[25].veinsmobility 	totalCO2Emission 	125.97665026119
scalar IntersectionExampleScenario.node[30].appl 	VehicleRemoved 	0
scalar IntersectionExampleScenario.node[30].appl 	ArrivedAtDest 	1
scalar IntersectionExampleScenario.node[30].appl 	IntersectionEnterTime 	108.25
scalar IntersectionExampleScenario.node[30].appl 	IntersectionExitTime 	131.77172185111
scalar IntersectionExampleScenario.node[30].appl 	NumberOfCollisions 	0
scalar IntersectionExampleScenario.node[30].nic.phy80211p 	busyTime 	0
scalar IntersectionExampleScenario.node[30].nic.mac1609_4 	ReceivedUnicastPackets 	0
scalar IntersectionExampleScenario.node[30].nic.mac1609_4 	ReceivedBroadcasts 	0
scalar IntersectionExampleScenario.node[30].nic.mac1609_4 	SentPackets 	0
scalar IntersectionExampleScenario.node[30].nic.mac1609_4 	SNIRLostPackets 	0
scalar IntersectionExampleScenario.node[30].nic.mac1609_4 	RXTXLostPackets 	0
scalar IntersectionExampleScenario.node[30].nic.mac1609_4 	TotalLostPackets 	0
scalar IntersectionExampleScenario.node[30].nic.mac1609_4 	DroppedPacketsInMac 	0
scalar IntersectionExampleScenario.node[30].nic.mac1609_4 	TooLittleTime 	0
scalar IntersectionExampleScenario.node[30].nic.mac1609_4 	TimesIntoBackoff 	0
scalar IntersectionExampleScenario.node[30].nic.mac1609_4 	SlotsBackoff 	0
scalar IntersectionExampleScenario.node[30].nic.mac1609_4 	NumInternalContention 	0
scalar IntersectionExampleScenario.node[30].nic.mac1609_4 	totalBusyTime 	0
scalar IntersectionExampleScenario.node[30].veinsmobility 	startTime 	108.25
scalar IntersectionExampleScenario.node[30].veinsmobility 	totalTime 	40
scalar IntersectionExampleScenario.node[30].veinsmobility 	stopTime 	148.5
scalar IntersectionExampleScenario.node[30].veinsmobility 	minSpeed 	5.6500000953674
scalar IntersectionExampleScenario.node[30].veinsmobility 	maxSpeed 	15.875
scalar IntersectionExampleScenario.node[30].veinsmobility 	totalDistance 	544.39374005234
scalar IntersectionExampleScenario.node[30].veinsmobility 	totalCO2Emission 	129.43741233285
scalar IntersectionExampleScenario.node[20].appl 	VehicleRemoved 	0
scalar IntersectionExampleScenario.node[20].appl 	ArrivedAtDest 	1
scalar IntersectionExampleScenario.node[20].appl 	IntersectionEnterTime 	91
scalar IntersectionExampleScenario.node[20].appl 	IntersectionExitTime 	133.34249393965
scalar IntersectionExampleScenario.node[20].appl 	NumberOfCollisions 	0
scalar IntersectionExampleScenario.node[20].nic.phy80211p 	busyTime 	0
scalar IntersectionExampleScenario.node[20].nic.mac1609_4 	ReceivedUnicastPackets 	0
scalar IntersectionExampleScenario.node[20].nic.mac1609_4 	ReceivedBroadcasts 	0
scalar IntersectionExampleScenario.node[20].nic.mac1609_4 	SentPackets 	0
scalar IntersectionExampleScenario.node[20].nic.mac1609_4 	SNIRLostPackets 	0
scalar IntersectionExampleScenario.node[20].nic.mac1609_4 	RXTXLostPackets 	0
scalar IntersectionExampleScenario.node[20].nic.mac1609_4 	TotalLostPackets 	0
scalar IntersectionExampleScenario.node[20].nic.mac1609_4 	DroppedPacketsInMac 	0
scalar IntersectionExampleScenario.node[20].nic.mac1609_4 	TooLittleTime 	0
scalar IntersectionExampleScenario.node[20].nic.mac1609_4 	TimesIntoBackoff 	0
scalar IntersectionExampleScenario.node[20].nic.mac1609_4 	SlotsBackoff 	0
scalar IntersectionExampleScenario.node[20].nic.mac1609_4 	NumInternalContention 	0
scalar IntersectionExampleScenario.node[20].nic.mac1609_4 	totalBusyTime 	0
scalar IntersectionExampleScenario.node[20].veinsmobility 	startTime 	91
scalar IntersectionExampleScenario.node[20].veinsmobility 	totalTime 	58.75
scalar IntersectionExampleScenario.node[20].veinsmobility 	stopTime 	150
scalar IntersectionExampleScenario.node[20].veinsmobility 	minSpeed 	0
scalar IntersectionExampleScenario.node[20].veinsmobility 	maxSpeed 	15.02499961853
scalar IntersectionExampleScenario.node[20].veinsmobility 	totalDistance 	551.77279663086
scalar IntersectionExampleScenario.node[20].veinsmobility 	totalCO2Emission 	147.08079518715
scalar IntersectionExampleScenario.node[24].appl 	VehicleRemoved 	0
scalar IntersectionExampleScenario.node[24].appl 	ArrivedAtDest 	1
scalar IntersectionExampleScenario.node[24].appl 	IntersectionEnterTime 	94
scalar IntersectionExampleScenario.node[24].appl 	IntersectionExitTime 	134.08233654365
scalar IntersectionExampleScenario.node[24].appl 	NumberOfCollisions 	0
scalar IntersectionExampleScenario.node[24].nic.phy80211p 	busyTime 	0
scalar IntersectionExampleScenario.node[24].nic.mac1609_4 	ReceivedUnicastPackets 	0
scalar IntersectionExampleScenario.node[24].nic.mac1609_4 	ReceivedBroadcasts 	0
scalar IntersectionExampleScenario.node[24].nic.mac1609_4 	SentPackets 	0
scalar IntersectionExampleScenario.node[24].nic.mac1609_4 	SNIRLostPackets 	0
scalar IntersectionExampleScenario.node[24].nic.mac1609_4 	RXTXLostPackets 	0
scalar IntersectionExampleScenario.node[24].nic.mac1609_4 	TotalLostPackets 	0
scalar IntersectionExampleScenario.node[24].nic.mac1609_4 	DroppedPacketsInMac 	0
scalar IntersectionExampleScenario.node[24].nic.mac1609_4 	TooLittleTime 	0
scalar IntersectionExampleScenario.node[24].nic.mac1609_4 	TimesIntoBackoff 	0
scalar IntersectionExampleScenario.node[24].nic.mac1609_4 	SlotsBackoff 	0
scalar IntersectionExampleScenario.node[24].nic.mac1609_4 	NumInternalContention 	0
scalar IntersectionExampleScenario.node[24].nic.mac1609_4 	totalBusyTime 	0
scalar IntersectionExampleScenario.node[24].veinsmobility 	startTime 	94
scalar IntersectionExampleScenario.node[24].veinsmobility 	totalTime 	57
scalar IntersectionExampleScenario.node[24].veinsmobility 	stopTime 	151.25
scalar IntersectionExampleScenario.node[24].veinsmobility 	minSpeed 	0
scalar IntersectionExampleScenario.node[24].veinsmobility 	maxSpeed 	15.25
scalar IntersectionExampleScenario.node[24].veinsmobility 	totalDistance 	557.5425701352
scalar IntersectionExampleScenario.node[24].veinsmobility 	totalCO2Emission 	147.57805079136
scalar IntersectionExampleScenario.node[31].appl 	VehicleRemoved 	0
scalar IntersectionExampleScenario.node[31].appl 	ArrivedAtDest 	1
scalar IntersectionExampleScenario.node[31].appl 	IntersectionEnterTime 	113.5
scalar IntersectionExampleScenario.node[31].appl 	IntersectionExitTime 	137.06961725041
scalar IntersectionExampleScenario.node[31].appl 	NumberOfCollisions 	0
scalar IntersectionExampleScenario.node[31].nic.phy80211p 	busyTime 	0
scalar IntersectionExampleScenario.node[31].nic.mac1609_4 	ReceivedUnicastPackets 	0
scalar IntersectionExampleScenario.node[31].nic.mac1609_4 	ReceivedBroadcasts 	0
scalar IntersectionExampleScenario.node[31].nic.mac1609_4 	SentPackets 	0
scalar IntersectionExampleScenario.node[31].nic.mac1609_4 	SNIRLostPackets 	0
scalar IntersectionExampleScenario.node[31].nic.mac1609_4 	RXTXLostPackets 	0
scalar IntersectionExampleScenario.node[31].nic.mac1609_4 	TotalLostPackets 	0
scalar IntersectionExampleScenario.node[31].nic.mac1609_4 	DroppedPacketsInMac 	0
scalar IntersectionExampleScenario.node[31].nic.mac1609_4 	TooLittleTime 	0
scalar IntersectionExampleScenario.node[31].nic.mac1609_4 	TimesIntoBackoff 	0
scalar IntersectionExampleScenario.node[31].nic.mac1609_4 	SlotsBackoff 	0
scalar IntersectionExampleScenario.node[31].nic.mac1609_4 	NumInternalContention 	0
scalar IntersectionExampleScenario.node[31].nic.mac1609_4 	totalBusyTime 	0
scalar IntersectionExampleScenario.node[31].veinsmobility 	startTime 	113.5
scalar IntersectionExampleScenario.node[31].veinsmobility 	totalTime 	39
scalar IntersectionExampleScenario.node[31].veinsmobility 	stopTime 	152.75
scalar IntersectionExampleScenario.node[31].veinsmobility 	minSpeed 	5.6500000953674
scalar IntersectionExampleScenario.node[31].veinsmobility 	maxSpeed 	16.27499961853
scalar IntersectionExampleScenario.node[31].veinsmobility 	totalDistance 	553.94383239746
scalar IntersectionExampleScenario.node[31].veinsmobility 	totalCO2Emission 	136.14324990151
scalar IntersectionExampleScenario.node[26].appl 	VehicleRemoved 	0
scalar IntersectionExampleScenario.node[26].appl 	ArrivedAtDest 	1
scalar IntersectionExampleScenario.node[26].appl 	IntersectionEnterTime 	102.75
scalar IntersectionExampleScenario.node[26].appl 	IntersectionExitTime 	143.53762239628
scalar IntersectionExampleScenario.node[26].appl 	NumberOfCollisions 	0
scalar IntersectionExampleScenario.node[26].nic.phy80211p 	busyTime 	0
scalar IntersectionExampleScenario.node[26].nic.mac1609_4 	ReceivedUnicastPackets 	0
scalar IntersectionExampleScenario.node[26].nic.mac1609_4 	ReceivedBroadcasts 	0
scalar IntersectionExampleScenario.node[26].nic.mac1609_4 	SentPackets 	0
scalar IntersectionExampleScenario.node[26].nic.mac1609_4 	SNIRLostPackets 	0
scalar IntersectionExampleScenario.node[26].nic.mac1609_4 	RXTXLostPackets 	0
scalar IntersectionExampleScenario.node[26].nic.mac1609_4 	TotalLostPackets 	0
scalar IntersectionExampleScenario.node[26].nic.mac1609_4 	DroppedPacketsInMac 	0
scalar IntersectionExampleScenario.node[26].nic.mac1609_4 	TooLittleTime 	0
scalar IntersectionExampleScenario.node[26].nic.mac1609_4 	TimesIntoBackoff 	0
scalar IntersectionExampleScenario.node[26].nic.mac1609_4 	SlotsBackoff 	0
scalar IntersectionExampleScenario.node[26].nic.mac1609_4 	NumInternalContention 	0
scalar IntersectionExampleScenario.node[26].nic.mac1609_4 	totalBusyTime 	0
scalar IntersectionExampleScenario.node[26].veinsmobility 	startTime 	102.75
scalar IntersectionExampleScenario.node[26].veinsmobility 	totalTime 	57.25
scalar IntersectionExampleScenario.node[26].veinsmobility 	stopTime 	160.25
scalar IntersectionExampleScenario.node[26].veinsmobility 	minSpeed 	0
scalar IntersectionExampleScenario.node[26].veinsmobility 	maxSpeed 	15.875
scalar IntersectionExampleScenario.node[26].veinsmobility 	totalDistance 	544.83437253386
scalar IntersectionExampleScenario.node[26].veinsmobility 	totalCO2Emission 	151.32211709906
scalar IntersectionExampleScenario.node[29].appl 	VehicleRemoved 	0
scalar IntersectionExampleScenario.node[29].appl 	ArrivedAtDest 	1
scalar IntersectionExampleScenario.node[29].appl 	IntersectionEnterTime 	107.75
scalar IntersectionExampleScenario.node[29].appl 	IntersectionExitTime 	145.55193795872
scalar IntersectionExampleScenario.node[29].appl 	NumberOfCollisions 	0
scalar IntersectionExampleScenario.node[29].nic.phy80211p 	busyTime 	0
scalar IntersectionExampleScenario.node[29].nic.mac1609_4 	ReceivedUnicastPackets 	0
scalar IntersectionExampleScenario.node[29].nic.mac1609_4 	ReceivedBroadcasts 	0
scalar IntersectionExampleScenario.node[29].nic.mac1609_4 	SentPackets 	0
scalar IntersectionExampleScenario.node[29].nic.mac1609_4 	SNIRLostPackets 	0
scalar IntersectionExampleScenario.node[29].nic.mac1609_4 	RXTXLostPackets 	0
scalar IntersectionExampleScenario.node[29].nic.mac1609_4 	TotalLostPackets 	0
scalar IntersectionExampleScenario.node[29].nic.mac1609_4 	DroppedPacketsInMac 	0
scalar IntersectionExampleScenario.node[29].nic.mac1609_4 	TooLittleTime 	0
scalar IntersectionExampleScenario.node[29].nic.mac1609_4 	TimesIntoBackoff 	0
scalar IntersectionExampleScenario.node[29].nic.mac1609_4 	SlotsBackoff 	0
scalar IntersectionExampleScenario.node[29].nic.mac1609_4 	NumInternalContention 	0
scalar IntersectionExampleScenario.node[29].nic.mac1609_4 	totalBusyTime 	0
scalar IntersectionExampleScenario.node[29].veinsmobility 	startTime 	107.75
scalar IntersectionExampleScenario.node[29].veinsmobility 	totalTime 	53.75
scalar IntersectionExampleScenario.node[29].veinsmobility 	stopTime 	161.75
scalar IntersectionExampleScenario.node[29].veinsmobility 	minSpeed 	0
scalar IntersectionExampleScenario.node[29].veinsmobility 	maxSpeed 	16.27499961853
scalar IntersectionExampleScenario.node[29].veinsmobility 	totalDistance 	549.70114164327
scalar IntersectionExampleScenario.node[29].veinsmobility 	totalCO2Emission 	149.90128806443
scalar IntersectionExampleScenario.node[32].appl 	VehicleRemoved 	0
scalar IntersectionExampleScenario.node[32].appl 	ArrivedAtDest 	1
scalar IntersectionExampleScenario.node[32].appl 	IntersectionEnterTime 	117
scalar IntersectionExampleScenario.node[32].appl 	IntersectionExitTime 	146.11399681287
scalar IntersectionExampleScenario.node[32].appl 	NumberOfCollisions 	0
scalar IntersectionExampleScenario.node[32].nic.phy80211p 	busyTime 	0
scalar IntersectionExampleScenario.node[32].nic.mac1609_4 	ReceivedUnicastPackets 	0
scalar IntersectionExampleScenario.node[32].nic.mac1609_4 	ReceivedBroadcasts 	0
scalar IntersectionExampleScenario.node[32].nic.mac1609_4 	SentPackets 	0
scalar IntersectionExampleScenario.node[32].nic.mac1609_4 	SNIRLostPackets 	0
scalar IntersectionExampleScenario.node[32].nic.mac1609_4 	RXTXLostPackets 	0
scalar IntersectionExampleScenario.node[32].nic.mac1609_4 	TotalLostPackets 	0
scalar IntersectionExampleScenario.node[32].nic.mac1609_4 	DroppedPacketsInMac 	0
scalar IntersectionExampleScenario.node[32].nic.mac1609_4 	TooLittleTime 	0
scalar IntersectionExampleScenario.node[32].nic.mac1609_4 	TimesIntoBackoff 	0
scalar IntersectionExampleScenario.node[32].nic.mac1609_4 	SlotsBackoff 	0
scalar IntersectionExampleScenario.node[32].nic.mac1609_4 	NumInternalContention 	0
scalar IntersectionExampleScenario.node[32].nic.mac1609_4 	totalBusyTime 	0
scalar IntersectionExampleScenario.node[32].veinsmobility 	startTime 	117
scalar IntersectionExampleScenario.node[32].veinsmobility 	totalTime 	45.25
scalar IntersectionExampleScenario.node[32].veinsmobility 	stopTime 	162.5
scalar IntersectionExampleScenario.node[32].veinsmobility 	minSpeed 	3.1358411312103
scalar IntersectionExampleScenario.node[32].veinsmobility 	maxSpeed 	16.27499961853
scalar IntersectionExampleScenario.node[32].veinsmobility 	totalDistance 	543.2216760206
scalar IntersectionExampleScenario.node[32].veinsmobility 	totalCO2Emission 	139.49195507797
scalar IntersectionExampleScenario.node[27].appl 	VehicleRemoved 	0
scalar IntersectionExampleScenario.node[27].appl 	ArrivedAtDest 	1
scalar IntersectionExampleScenario.node[27].appl 	IntersectionEnterTime 	104.75
scalar IntersectionExampleScenario.node[27].appl 	IntersectionExitTime 	148.12174603235
scalar IntersectionExampleScenario.node[27].appl 	NumberOfCollisions 	0
scalar IntersectionExampleScenario.node[27].nic.phy80211p 	busyTime 	0
scalar IntersectionExampleScenario.node[27].nic.mac1609_4 	ReceivedUnicastPackets 	0
scalar IntersectionExampleScenario.node[27].nic.mac1609_4 	ReceivedBroadcasts 	0
scalar IntersectionExampleScenario.node[27].nic.mac1609_4 	SentPackets 	0
scalar IntersectionExampleScenario.node[27].nic.mac1609_4 	SNIRLostPackets 	0
scalar IntersectionExampleScenario.node[27].nic.mac1609_4 	RXTXLostPackets 	0
scalar IntersectionExampleScenario.node[27].nic.mac1609_4 	TotalLostPackets 	0
scalar IntersectionExampleScenario.node[27].nic.mac1609_4 	DroppedPacketsInMac 	0
scalar IntersectionExampleScenario.node[27].nic.mac1609_4 	TooLittleTime 	0
scalar IntersectionExampleScenario.node[27].nic.mac1609_4 	TimesIntoBackoff 	0
scalar IntersectionExampleScenario.node[27].nic.mac1609_4 	SlotsBackoff 	0
scalar IntersectionExampleScenario.node[27].nic.mac1609_4 	NumInternalContention 	0
scalar IntersectionExampleScenario.node[27].nic.mac1609_4 	totalBusyTime 	0
scalar IntersectionExampleScenario.node[27].veinsmobility 	startTime 	104.75
scalar IntersectionExampleScenario.node[27].veinsmobility 	totalTime 	59.5
scalar IntersectionExampleScenario.node[27].veinsmobility 	stopTime 	164.5
scalar IntersectionExampleScenario.node[27].veinsmobility 	minSpeed 	0
scalar IntersectionExampleScenario.node[27].veinsmobility 	maxSpeed 	15.875
scalar IntersectionExampleScenario.node[27].veinsmobility 	totalDistance 	562.60157814553
scalar IntersectionExampleScenario.node[27].veinsmobility 	totalCO2Emission 	160.05045567938
scalar IntersectionExampleScenario.node[28].appl 	VehicleRemoved 	0
scalar IntersectionExampleScenario.node[28].appl 	ArrivedAtDest 	1
scalar IntersectionExampleScenario.node[28].appl 	IntersectionEnterTime 	107.5
scalar IntersectionExampleScenario.node[28].appl 	IntersectionExitTime 	148.57837472705
scalar IntersectionExampleScenario.node[28].appl 	NumberOfCollisions 	0
scalar IntersectionExampleScenario.node[28].nic.phy80211p 	busyTime 	0
scalar IntersectionExampleScenario.node[28].nic.mac1609_4 	ReceivedUnicastPackets 	0
scalar IntersectionExampleScenario.node[28].nic.mac1609_4 	ReceivedBroadcasts 	0
scalar IntersectionExampleScenario.node[28].nic.mac1609_4 	SentPackets 	0
scalar IntersectionExampleScenario.node[28].nic.mac1609_4 	SNIRLostPackets 	0
scalar IntersectionExampleScenario.node[28].nic.mac1609_4 	RXTXLostPackets 	0
scalar IntersectionExampleScenario.node[28].nic.mac1609_4 	TotalLostPackets 	0
scalar IntersectionExampleScenario.node[28].nic.mac1609_4 	DroppedPacketsInMac 	0
scalar IntersectionExampleScenario.node[28].nic.mac1609_4 	TooLittleTime 	0
scalar IntersectionExampleScenario.node[28].nic.mac1609_4 	TimesIntoBackoff 	0
scalar IntersectionExampleScenario.node[28].nic.mac1609_4 	SlotsBackoff 	0
scalar IntersectionExampleScenario.node[28].nic.mac1609_4 	NumInternalContention 	0
scalar IntersectionExampleScenario.node[28].nic.mac1609_4 	totalBusyTime 	0
scalar IntersectionExampleScenario.node[28].veinsmobility 	startTime 	107.5
scalar IntersectionExampleScenario.node[28].veinsmobility 	totalTime 	57
scalar IntersectionExampleScenario.node[28].veinsmobility 	stopTime 	164.75
scalar IntersectionExampleScenario.node[28].veinsmobility 	minSpeed 	0
scalar IntersectionExampleScenario.node[28].veinsmobility 	maxSpeed 	15.64999961853
scalar IntersectionExampleScenario.node[28].veinsmobility 	totalDistance 	575.37222290039
scalar IntersectionExampleScenario.node[28].veinsmobility 	totalCO2Emission 	148.9604079731
scalar IntersectionExampleScenario.node[37].appl 	VehicleRemoved 	0
scalar IntersectionExampleScenario.node[37].appl 	ArrivedAtDest 	1
scalar IntersectionExampleScenario.node[37].appl 	IntersectionEnterTime 	121.75
scalar IntersectionExampleScenario.node[37].appl 	IntersectionExitTime 	149.04815875343
scalar IntersectionExampleScenario.node[37].appl 	NumberOfCollisions 	0
scalar IntersectionExampleScenario.node[37].nic.phy80211p 	busyTime 	0
scalar IntersectionExampleScenario.node[37].nic.mac1609_4 	ReceivedUnicastPackets 	0
scalar IntersectionExampleScenario.node[37].nic.mac1609_4 	ReceivedBroadcasts 	0
scalar IntersectionExampleScenario.node[37].nic.mac1609_4 	SentPackets 	0
scalar IntersectionExampleScenario.node[37].nic.mac1609_4 	SNIRLostPackets 	0
scalar IntersectionExampleScenario.node[37].nic.mac1609_4 	RXTXLostPackets 	0
scalar IntersectionExampleScenario.node[37].nic.mac1609_4 	TotalLostPackets 	0
scalar IntersectionExampleScenario.node[37].nic.mac1609_4 	DroppedPacketsInMac 	0
scalar IntersectionExampleScenario.node[37].nic.mac1609_4 	TooLittleTime 	0
scalar IntersectionExampleScenario.node[37].nic.mac1609_4 	TimesIntoBackoff 	0
scalar IntersectionExampleScenario.node[37].nic.mac1609_4 	SlotsBackoff 	0
scalar IntersectionExampleScenario.node[37].nic.mac1609_4 	NumInternalContention 	0
scalar IntersectionExampleScenario.node[37].nic.mac1609_4 	totalBusyTime 	0
scalar IntersectionExampleScenario.node[37].veinsmobility 	startTime 	121.75
scalar IntersectionExampleScenario.node[37].veinsmobility 	totalTime 	44.25
scalar IntersectionExampleScenario.node[37].veinsmobility 	stopTime 	166.25
scalar IntersectionExampleScenario.node[37].veinsmobility 	minSpeed 	3.8956701755524
scalar IntersectionExampleScenario.node[37].veinsmobility 	maxSpeed 	15.452998161316
scalar IntersectionExampleScenario.node[37].veinsmobility 	totalDistance 	517.51986537923
scalar IntersectionExampleScenario.node[37].veinsmobility 	totalCO2Emission 	133.16469382639
scalar IntersectionExampleScenario.node[34].appl 	VehicleRemoved 	0
scalar IntersectionExampleScenario.node[34].appl 	ArrivedAtDest 	1
scalar IntersectionExampleScenario.node[34].appl 	IntersectionEnterTime 	118.5
scalar IntersectionExampleScenario.node[34].appl 	IntersectionExitTime 	151.02326086929
scalar IntersectionExampleScenario.node[34].appl 	NumberOfCollisions 	0
scalar IntersectionExampleScenario.node[34].nic.phy80211p 	busyTime 	0
scalar IntersectionExampleScenario.node[34].nic.mac1609_4 	ReceivedUnicastPackets 	0
scalar IntersectionExampleScenario.node[34].nic.mac1609_4 	ReceivedBroadcasts 	0
scalar IntersectionExampleScenario.node[34].nic.mac1609_4 	SentPackets 	0
scalar IntersectionExampleScenario.node[34].nic.mac1609_4 	SNIRLostPackets 	0
scalar IntersectionExampleScenario.node[34].nic.mac1609_4 	RXTXLostPackets 	0
scalar IntersectionExampleScenario.node[34].nic.mac1609_4 	TotalLostPackets 	0
scalar IntersectionExampleScenario.node[34].nic.mac1609_4 	DroppedPacketsInMac 	0
scalar IntersectionExampleScenario.node[34].nic.mac1609_4 	TooLittleTime 	0
scalar IntersectionExampleScenario.node[34].nic.mac1609_4 	TimesIntoBackoff 	0
scalar IntersectionExampleScenario.node[34].nic.mac1609_4 	SlotsBackoff 	0
scalar IntersectionExampleScenario.node[34].nic.mac1609_4 	NumInternalContention 	0
scalar IntersectionExampleScenario.node[34].nic.mac1609_4 	totalBusyTime 	0
scalar IntersectionExampleScenario.node[34].veinsmobility 	startTime 	118.5
scalar IntersectionExampleScenario.node[34].veinsmobility 	totalTime 	49.75
scalar IntersectionExampleScenario.node[34].veinsmobility 	stopTime 	168.5
scalar IntersectionExampleScenario.node[34].veinsmobility 	minSpeed 	4.3770189285278
scalar IntersectionExampleScenario.node[34].veinsmobility 	maxSpeed 	14.75
scalar IntersectionExampleScenario.node[34].veinsmobility 	totalDistance 	570.71539887764
scalar IntersectionExampleScenario.node[34].veinsmobility 	totalCO2Emission 	152.15514046957
scalar IntersectionExampleScenario.node[36].appl 	VehicleRemoved 	0
scalar IntersectionExampleScenario.node[36].appl 	ArrivedAtDest 	1
scalar IntersectionExampleScenario.node[36].appl 	IntersectionEnterTime 	120.75
scalar IntersectionExampleScenario.node[36].appl 	IntersectionExitTime 	152.75002153157
scalar IntersectionExampleScenario.node[36].appl 	NumberOfCollisions 	0
scalar IntersectionExampleScenario.node[36].nic.phy80211p 	busyTime 	0
scalar IntersectionExampleScenario.node[36].nic.mac1609_4 	ReceivedUnicastPackets 	0
scalar IntersectionExampleScenario.node[36].nic.mac1609_4 	ReceivedBroadcasts 	0
scalar IntersectionExampleScenario.node[36].nic.mac1609_4 	SentPackets 	0
scalar IntersectionExampleScenario.node[36].nic.mac1609_4 	SNIRLostPackets 	0
scalar IntersectionExampleScenario.node[36].nic.mac1609_4 	RXTXLostPackets 	0
scalar IntersectionExampleScenario.node[36].nic.mac1609_4 	TotalLostPackets 	0
scalar IntersectionExampleScenario.node[36].nic.mac1609_4 	DroppedPacketsInMac 	0
scalar IntersectionExampleScenario.node[36].nic.mac1609_4 	TooLittleTime 	0
scalar IntersectionExampleScenario.node[36].nic.mac1609_4 	TimesIntoBackoff 	0
scalar IntersectionExampleScenario.node[36].nic.mac1609_4 	SlotsBackoff 	0
scalar IntersectionExampleScenario.node[36].nic.mac1609_4 	NumInternalContention 	0
scalar IntersectionExampleScenario.node[36].nic.mac1609_4 	totalBusyTime 	0
scalar IntersectionExampleScenario.node[36].veinsmobility 	startTime 	120.75
scalar IntersectionExampleScenario.node[36].veinsmobility 	totalTime 	48.75
scalar IntersectionExampleScenario.node[36].veinsmobility 	stopTime 	169.75
scalar IntersectionExampleScenario.node[36].veinsmobility 	minSpeed 	5.6500000953674
scalar IntersectionExampleScenario.node[36].veinsmobility 	maxSpeed 	16.575881958008
scalar IntersectionExampleScenario.node[36].veinsmobility 	totalDistance 	579.33250954406
scalar IntersectionExampleScenario.node[36].veinsmobility 	totalCO2Emission 	156.74233953792
scalar IntersectionExampleScenario.node[38].appl 	VehicleRemoved 	0
scalar IntersectionExampleScenario.node[38].appl 	ArrivedAtDest 	1
scalar IntersectionExampleScenario.node[38].appl 	IntersectionEnterTime 	125.25
scalar IntersectionExampleScenario.node[38].appl 	IntersectionExitTime 	154.84045059665
scalar IntersectionExampleScenario.node[38].appl 	NumberOfCollisions 	0
scalar IntersectionExampleScenario.node[38].nic.phy80211p 	busyTime 	0
scalar IntersectionExampleScenario.node[38].nic.mac1609_4 	ReceivedUnicastPackets 	0
scalar IntersectionExampleScenario.node[38].nic.mac1609_4 	ReceivedBroadcasts 	0
scalar IntersectionExampleScenario.node[38].nic.mac1609_4 	SentPackets 	0
scalar IntersectionExampleScenario.node[38].nic.mac1609_4 	SNIRLostPackets 	0
scalar IntersectionExampleScenario.node[38].nic.mac1609_4 	RXTXLostPackets 	0
scalar IntersectionExampleScenario.node[38].nic.mac1609_4 	TotalLostPackets 	0
scalar IntersectionExampleScenario.node[38].nic.mac1609_4 	DroppedPacketsInMac 	0
scalar IntersectionExampleScenario.node[38].nic.mac1609_4 	TooLittleTime 	0
scalar IntersectionExampleScenario.node[38].nic.mac1609_4 	TimesIntoBackoff 	0
scalar IntersectionExampleScenario.node[38].nic.mac1609_4 	SlotsBackoff 	0
scalar IntersectionExampleScenario.node[38].nic.mac1609_4 	NumInternalContention 	0
scalar IntersectionExampleScenario.node[38].nic.mac1609_4 	totalBusyTime 	0
scalar IntersectionExampleScenario.node[38].veinsmobility 	startTime 	125.25
scalar IntersectionExampleScenario.node[38].veinsmobility 	totalTime 	46.5
scalar IntersectionExampleScenario.node[38].veinsmobility 	stopTime 	172
scalar IntersectionExampleScenario.node[38].veinsmobility 	minSpeed 	5.6500000953674
scalar IntersectionExampleScenario.node[38].veinsmobility 	maxSpeed 	15.25
scalar IntersectionExampleScenario.node[38].veinsmobility 	totalDistance 	564.62645293864
scalar IntersectionExampleScenario.node[38].veinsmobility 	totalCO2Emission 	139.99693509269
scalar IntersectionExampleScenario.node[33].appl 	VehicleRemoved 	0
scalar IntersectionExampleScenario.node[33].appl 	ArrivedAtDest 	1
scalar IntersectionExampleScenario.node[33].appl 	IntersectionEnterTime 	117.5
scalar IntersectionExampleScenario.node[33].appl 	IntersectionExitTime 	157.34292056764
scalar IntersectionExampleScenario.node[33].appl 	NumberOfCollisions 	0
scalar IntersectionExampleScenario.node[33].nic.phy80211p 	busyTime 	0
scalar IntersectionExampleScenario.node[33].nic.mac1609_4 	ReceivedUnicastPackets 	0
scalar IntersectionExampleScenario.node[33].nic.mac1609_4 	ReceivedBroadcasts 	0
scalar IntersectionExampleScenario.node[33].nic.mac1609_4 	SentPackets 	0
scalar IntersectionExampleScenario.node[33].nic.mac1609_4 	SNIRLostPackets 	0
scalar IntersectionExampleScenario.node[33].nic.mac1609_4 	RXTXLostPackets 	0
scalar IntersectionExampleScenario.node[33].nic.mac1609_4 	TotalLostPackets 	0
scalar IntersectionExampleScenario.node[33].nic.mac1609_4 	DroppedPacketsInMac 	0
scalar IntersectionExampleScenario.node[33].nic.mac1609_4 	TooLittleTime 	0
scalar IntersectionExampleScenario.node[33].nic.mac1609_4 	TimesIntoBackoff 	0
scalar IntersectionExampleScenario.node[33].nic.mac1609_4 	SlotsBackoff 	0
scalar IntersectionExampleScenario.node[33].nic.mac1609_4 	NumInternalContention 	0
scalar IntersectionExampleScenario.node[33].nic.mac1609_4 	totalBusyTime 	0
scalar IntersectionExampleScenario.node[33].veinsmobility 	startTime 	117.5
scalar IntersectionExampleScenario.node[33].veinsmobility 	totalTime 	55.25
scalar IntersectionExampleScenario.node[33].veinsmobility 	stopTime 	173
scalar IntersectionExampleScenario.node[33].veinsmobility 	minSpeed 	0
scalar IntersectionExampleScenario.node[33].veinsmobility 	maxSpeed 	16.461223602295
scalar IntersectionExampleScenario.node[33].veinsmobility 	totalDistance 	551.29544830322
scalar IntersectionExampleScenario.node[33].veinsmobility 	totalCO2Emission 	159.50311495396
scalar IntersectionExampleScenario.node[40].appl 	VehicleRemoved 	0
scalar IntersectionExampleScenario.node[40].appl 	ArrivedAtDest 	1
scalar IntersectionExampleScenario.node[40].appl 	IntersectionEnterTime 	126.75
scalar IntersectionExampleScenario.node[40].appl 	IntersectionExitTime 	159.6058121222
scalar IntersectionExampleScenario.node[40].appl 	NumberOfCollisions 	0
scalar IntersectionExampleScenario.node[40].nic.phy80211p 	busyTime 	0
scalar IntersectionExampleScenario.node[40].nic.mac1609_4 	ReceivedUnicastPackets 	0
scalar IntersectionExampleScenario.node[40].nic.mac1609_4 	ReceivedBroadcasts 	0
scalar IntersectionExampleScenario.node[40].nic.mac1609_4 	SentPackets 	0
scalar IntersectionExampleScenario.node[40].nic.mac1609_4 	SNIRLostPackets 	0
scalar IntersectionExampleScenario.node[40].nic.mac1609_4 	RXTXLostPackets 	0
scalar IntersectionExampleScenario.node[40].nic.mac1609_4 	TotalLostPackets 	0
scalar IntersectionExampleScenario.node[40].nic.mac1609_4 	DroppedPacketsInMac 	0
scalar IntersectionExampleScenario.node[40].nic.mac1609_4 	TooLittleTime 	0
scalar IntersectionExampleScenario.node[40].nic.mac1609_4 	TimesIntoBackoff 	0
scalar IntersectionExampleScenario.node[40].nic.mac1609_4 	SlotsBackoff 	0
scalar IntersectionExampleScenario.node[40].nic.mac1609_4 	NumInternalContention 	0
scalar IntersectionExampleScenario.node[40].nic.mac1609_4 	totalBusyTime 	0
scalar IntersectionExampleScenario.node[40].veinsmobility 	startTime 	126.75
scalar IntersectionExampleScenario.node[40].veinsmobility 	totalTime 	49
scalar IntersectionExampleScenario.node[40].veinsmobility 	stopTime 	176
scalar IntersectionExampleScenario.node[40].veinsmobility 	minSpeed 	1.8801665306091
scalar IntersectionExampleScenario.node[40].veinsmobility 	maxSpeed 	15.459409713745
scalar IntersectionExampleScenario.node[40].veinsmobility 	totalDistance 	551.53177642822
scalar IntersectionExampleScenario.node[40].veinsmobility 	totalCO2Emission 	135.40164888704
scalar IntersectionExampleScenario.node[43].appl 	VehicleRemoved 	0
scalar IntersectionExampleScenario.node[43].appl 	ArrivedAtDest 	1
scalar IntersectionExampleScenario.node[43].appl 	IntersectionEnterTime 	135
scalar IntersectionExampleScenario.node[43].appl 	IntersectionExitTime 	162.03906809472
scalar IntersectionExampleScenario.node[43].appl 	NumberOfCollisions 	0
scalar IntersectionExampleScenario.node[43].nic.phy80211p 	busyTime 	0
scalar IntersectionExampleScenario.node[43].nic.mac1609_4 	ReceivedUnicastPackets 	0
scalar IntersectionExampleScenario.node[43].nic.mac1609_4 	ReceivedBroadcasts 	0
scalar IntersectionExampleScenario.node[43].nic.mac1609_4 	SentPackets 	0
scalar IntersectionExampleScenario.node[43].nic.mac1609_4 	SNIRLostPackets 	0
scalar IntersectionExampleScenario.node[43].nic.mac1609_4 	RXTXLostPackets 	0
scalar IntersectionExampleScenario.node[43].nic.mac1609_4 	TotalLostPackets 	0
scalar IntersectionExampleScenario.node[43].nic.mac1609_4 	DroppedPacketsInMac 	0
scalar IntersectionExampleScenario.node[43].nic.mac1609_4 	TooLittleTime 	0
scalar IntersectionExampleScenario.node[43].nic.mac1609_4 	TimesIntoBackoff 	0
[...]
scalar IntersectionExampleScenario.node[468].veinsmobility 	totalCO2Emission 	50.980882411883
scalar IntersectionExampleScenario.node[469].appl 	VehicleRemoved 	0
scalar IntersectionExampleScenario.node[469].appl 	ArrivedAtDest 	0
scalar IntersectionExampleScenario.node[469].appl 	IntersectionEnterTime 	1784.75
scalar IntersectionExampleScenario.node[469].appl 	IntersectionExitTime 	-1
scalar IntersectionExampleScenario.node[469].appl 	NumberOfCollisions 	0
scalar IntersectionExampleScenario.node[469].nic.phy80211p 	busyTime 	0
scalar IntersectionExampleScenario.node[469].nic.mac1609_4 	ReceivedUnicastPackets 	0
scalar IntersectionExampleScenario.node[469].nic.mac1609_4 	ReceivedBroadcasts 	0
scalar IntersectionExampleScenario.node[469].nic.mac1609_4 	SentPackets 	0
scalar IntersectionExampleScenario.node[469].nic.mac1609_4 	SNIRLostPackets 	0
scalar IntersectionExampleScenario.node[469].nic.mac1609_4 	RXTXLostPackets 	0
scalar IntersectionExampleScenario.node[469].nic.mac1609_4 	TotalLostPackets 	0
scalar IntersectionExampleScenario.node[469].nic.mac1609_4 	DroppedPacketsInMac 	0
scalar IntersectionExampleScenario.node[469].nic.mac1609_4 	TooLittleTime 	0
scalar IntersectionExampleScenario.node[469].nic.mac1609_4 	TimesIntoBackoff 	0
scalar IntersectionExampleScenario.node[469].nic.mac1609_4 	SlotsBackoff 	0
scalar IntersectionExampleScenario.node[469].nic.mac1609_4 	NumInternalContention 	0
scalar IntersectionExampleScenario.node[469].nic.mac1609_4 	totalBusyTime 	0
scalar IntersectionExampleScenario.node[469].veinsmobility 	startTime 	1784.75
scalar IntersectionExampleScenario.node[469].veinsmobility 	totalTime 	15.25
scalar IntersectionExampleScenario.node[469].veinsmobility 	stopTime 	1800
scalar IntersectionExampleScenario.node[469].veinsmobility 	minSpeed 	5.6500000953674
scalar IntersectionExampleScenario.node[469].veinsmobility 	maxSpeed 	15.223288536072
scalar IntersectionExampleScenario.node[469].veinsmobility 	totalDistance 	208.49716186523
scalar IntersectionExampleScenario.node[469].veinsmobility 	totalCO2Emission 	54.529249081724
scalar IntersectionExampleScenario.node[470].appl 	VehicleRemoved 	0
scalar IntersectionExampleScenario.node[470].appl 	ArrivedAtDest 	0
scalar IntersectionExampleScenario.node[470].appl 	IntersectionEnterTime 	1785.25
scalar IntersectionExampleScenario.node[470].appl 	IntersectionExitTime 	-1
scalar IntersectionExampleScenario.node[470].appl 	NumberOfCollisions 	0
scalar IntersectionExampleScenario.node[470].nic.phy80211p 	busyTime 	0
scalar IntersectionExampleScenario.node[470].nic.mac1609_4 	ReceivedUnicastPackets 	0
scalar IntersectionExampleScenario.node[470].nic.mac1609_4 	ReceivedBroadcasts 	0
scalar IntersectionExampleScenario.node[470].nic.mac1609_4 	SentPackets 	0
scalar IntersectionExampleScenario.node[470].nic.mac1609_4 	SNIRLostPackets 	0
scalar IntersectionExampleScenario.node[470].nic.mac1609_4 	RXTXLostPackets 	0
scalar IntersectionExampleScenario.node[470].nic.mac1609_4 	TotalLostPackets 	0
scalar IntersectionExampleScenario.node[470].nic.mac1609_4 	DroppedPacketsInMac 	0
scalar IntersectionExampleScenario.node[470].nic.mac1609_4 	TooLittleTime 	0
scalar IntersectionExampleScenario.node[470].nic.mac1609_4 	TimesIntoBackoff 	0
scalar IntersectionExampleScenario.node[470].nic.mac1609_4 	SlotsBackoff 	0
scalar IntersectionExampleScenario.node[470].nic.mac1609_4 	NumInternalContention 	0
scalar IntersectionExampleScenario.node[470].nic.mac1609_4 	totalBusyTime 	0
scalar IntersectionExampleScenario.node[470].veinsmobility 	startTime 	1785.25
scalar IntersectionExampleScenario.node[470].veinsmobility 	totalTime 	14.75
scalar IntersectionExampleScenario.node[470].veinsmobility 	stopTime 	1800
scalar IntersectionExampleScenario.node[470].veinsmobility 	minSpeed 	5.6500000953674
scalar IntersectionExampleScenario.node[470].veinsmobility 	maxSpeed 	15.202494621277
scalar IntersectionExampleScenario.node[470].veinsmobility 	totalDistance 	200.00775909424
scalar IntersectionExampleScenario.node[470].veinsmobility 	totalCO2Emission 	53.399929258128
scalar IntersectionExampleScenario.node[471].appl 	VehicleRemoved 	0
scalar IntersectionExampleScenario.node[471].appl 	ArrivedAtDest 	0
scalar IntersectionExampleScenario.node[471].appl 	IntersectionEnterTime 	1786.5
scalar IntersectionExampleScenario.node[471].appl 	IntersectionExitTime 	-1
scalar IntersectionExampleScenario.node[471].appl 	NumberOfCollisions 	0
scalar IntersectionExampleScenario.node[471].nic.phy80211p 	busyTime 	0
scalar IntersectionExampleScenario.node[471].nic.mac1609_4 	ReceivedUnicastPackets 	0
scalar IntersectionExampleScenario.node[471].nic.mac1609_4 	ReceivedBroadcasts 	0
scalar IntersectionExampleScenario.node[471].nic.mac1609_4 	SentPackets 	0
scalar IntersectionExampleScenario.node[471].nic.mac1609_4 	SNIRLostPackets 	0
scalar IntersectionExampleScenario.node[471].nic.mac1609_4 	RXTXLostPackets 	0
scalar IntersectionExampleScenario.node[471].nic.mac1609_4 	TotalLostPackets 	0
scalar IntersectionExampleScenario.node[471].nic.mac1609_4 	DroppedPacketsInMac 	0
scalar IntersectionExampleScenario.node[471].nic.mac1609_4 	TooLittleTime 	0
scalar IntersectionExampleScenario.node[471].nic.mac1609_4 	TimesIntoBackoff 	0
scalar IntersectionExampleScenario.node[471].nic.mac1609_4 	SlotsBackoff 	0
scalar IntersectionExampleScenario.node[471].nic.mac1609_4 	NumInternalContention 	0
scalar IntersectionExampleScenario.node[471].nic.mac1609_4 	totalBusyTime 	0
scalar IntersectionExampleScenario.node[471].veinsmobility 	startTime 	1786.5
scalar IntersectionExampleScenario.node[471].veinsmobility 	totalTime 	13.5
scalar IntersectionExampleScenario.node[471].veinsmobility 	stopTime 	1800
scalar IntersectionExampleScenario.node[471].veinsmobility 	minSpeed 	5.6500000953674
scalar IntersectionExampleScenario.node[471].veinsmobility 	maxSpeed 	15.02499961853
scalar IntersectionExampleScenario.node[471].veinsmobility 	totalDistance 	179.46750640869
scalar IntersectionExampleScenario.node[471].veinsmobility 	totalCO2Emission 	49.092294521582
scalar IntersectionExampleScenario.node[472].appl 	VehicleRemoved 	0
scalar IntersectionExampleScenario.node[472].appl 	ArrivedAtDest 	0
scalar IntersectionExampleScenario.node[472].appl 	IntersectionEnterTime 	1787
scalar IntersectionExampleScenario.node[472].appl 	IntersectionExitTime 	-1
scalar IntersectionExampleScenario.node[472].appl 	NumberOfCollisions 	0
scalar IntersectionExampleScenario.node[472].nic.phy80211p 	busyTime 	0
scalar IntersectionExampleScenario.node[472].nic.mac1609_4 	ReceivedUnicastPackets 	0
scalar IntersectionExampleScenario.node[472].nic.mac1609_4 	ReceivedBroadcasts 	0
scalar IntersectionExampleScenario.node[472].nic.mac1609_4 	SentPackets 	0
scalar IntersectionExampleScenario.node[472].nic.mac1609_4 	SNIRLostPackets 	0
scalar IntersectionExampleScenario.node[472].nic.mac1609_4 	RXTXLostPackets 	0
scalar IntersectionExampleScenario.node[472].nic.mac1609_4 	TotalLostPackets 	0
scalar IntersectionExampleScenario.node[472].nic.mac1609_4 	DroppedPacketsInMac 	0
scalar IntersectionExampleScenario.node[472].nic.mac1609_4 	TooLittleTime 	0
scalar IntersectionExampleScenario.node[472].nic.mac1609_4 	TimesIntoBackoff 	0
scalar IntersectionExampleScenario.node[472].nic.mac1609_4 	SlotsBackoff 	0
scalar IntersectionExampleScenario.node[472].nic.mac1609_4 	NumInternalContention 	0
scalar IntersectionExampleScenario.node[472].nic.mac1609_4 	totalBusyTime 	0
scalar IntersectionExampleScenario.node[472].veinsmobility 	startTime 	1787
scalar IntersectionExampleScenario.node[472].veinsmobility 	totalTime 	13
scalar IntersectionExampleScenario.node[472].veinsmobility 	stopTime 	1800
scalar IntersectionExampleScenario.node[472].veinsmobility 	minSpeed 	5.6500000953674
scalar IntersectionExampleScenario.node[472].veinsmobility 	maxSpeed 	15.361963272095
scalar IntersectionExampleScenario.node[472].veinsmobility 	totalDistance 	174.62928771973
scalar IntersectionExampleScenario.node[472].veinsmobility 	totalCO2Emission 	50.884949864766
scalar IntersectionExampleScenario.node[473].appl 	VehicleRemoved 	0
scalar IntersectionExampleScenario.node[473].appl 	ArrivedAtDest 	0
scalar IntersectionExampleScenario.node[473].appl 	IntersectionEnterTime 	1790.5
scalar IntersectionExampleScenario.node[473].appl 	IntersectionExitTime 	-1
scalar IntersectionExampleScenario.node[473].appl 	NumberOfCollisions 	0
scalar IntersectionExampleScenario.node[473].nic.phy80211p 	busyTime 	0
scalar IntersectionExampleScenario.node[473].nic.mac1609_4 	ReceivedUnicastPackets 	0
scalar IntersectionExampleScenario.node[473].nic.mac1609_4 	ReceivedBroadcasts 	0
scalar IntersectionExampleScenario.node[473].nic.mac1609_4 	SentPackets 	0
scalar IntersectionExampleScenario.node[473].nic.mac1609_4 	SNIRLostPackets 	0
scalar IntersectionExampleScenario.node[473].nic.mac1609_4 	RXTXLostPackets 	0
scalar IntersectionExampleScenario.node[473].nic.mac1609_4 	TotalLostPackets 	0
scalar IntersectionExampleScenario.node[473].nic.mac1609_4 	DroppedPacketsInMac 	0
scalar IntersectionExampleScenario.node[473].nic.mac1609_4 	TooLittleTime 	0
scalar IntersectionExampleScenario.node[473].nic.mac1609_4 	TimesIntoBackoff 	0
scalar IntersectionExampleScenario.node[473].nic.mac1609_4 	SlotsBackoff 	0
scalar IntersectionExampleScenario.node[473].nic.mac1609_4 	NumInternalContention 	0
scalar IntersectionExampleScenario.node[473].nic.mac1609_4 	totalBusyTime 	0
scalar IntersectionExampleScenario.node[473].veinsmobility 	startTime 	1790.5
scalar IntersectionExampleScenario.node[473].veinsmobility 	totalTime 	9.5
scalar IntersectionExampleScenario.node[473].veinsmobility 	stopTime 	1800
scalar IntersectionExampleScenario.node[473].veinsmobility 	minSpeed 	5.6500000953674
scalar IntersectionExampleScenario.node[473].veinsmobility 	maxSpeed 	15.02499961853
scalar IntersectionExampleScenario.node[473].veinsmobility 	totalDistance 	121.73560333252
scalar IntersectionExampleScenario.node[473].veinsmobility 	totalCO2Emission 	41.586154555489
scalar IntersectionExampleScenario.node[474].appl 	VehicleRemoved 	0
scalar IntersectionExampleScenario.node[474].appl 	ArrivedAtDest 	0
scalar IntersectionExampleScenario.node[474].appl 	IntersectionEnterTime 	1793
scalar IntersectionExampleScenario.node[474].appl 	IntersectionExitTime 	-1
scalar IntersectionExampleScenario.node[474].appl 	NumberOfCollisions 	0
scalar IntersectionExampleScenario.node[474].nic.phy80211p 	busyTime 	0
scalar IntersectionExampleScenario.node[474].nic.mac1609_4 	ReceivedUnicastPackets 	0
scalar IntersectionExampleScenario.node[474].nic.mac1609_4 	ReceivedBroadcasts 	0
scalar IntersectionExampleScenario.node[474].nic.mac1609_4 	SentPackets 	0
scalar IntersectionExampleScenario.node[474].nic.mac1609_4 	SNIRLostPackets 	0
scalar IntersectionExampleScenario.node[474].nic.mac1609_4 	RXTXLostPackets 	0
scalar IntersectionExampleScenario.node[474].nic.mac1609_4 	TotalLostPackets 	0
scalar IntersectionExampleScenario.node[474].nic.mac1609_4 	DroppedPacketsInMac 	0
scalar IntersectionExampleScenario.node[474].nic.mac1609_4 	TooLittleTime 	0
scalar IntersectionExampleScenario.node[474].nic.mac1609_4 	TimesIntoBackoff 	0
scalar IntersectionExampleScenario.node[474].nic.mac1609_4 	SlotsBackoff 	0
scalar IntersectionExampleScenario.node[474].nic.mac1609_4 	NumInternalContention 	0
scalar IntersectionExampleScenario.node[474].nic.mac1609_4 	totalBusyTime 	0
scalar IntersectionExampleScenario.node[474].veinsmobility 	startTime 	1793
scalar IntersectionExampleScenario.node[474].veinsmobility 	totalTime 	7
scalar IntersectionExampleScenario.node[474].veinsmobility 	stopTime 	1800
scalar IntersectionExampleScenario.node[474].veinsmobility 	minSpeed 	5.6500000953674
scalar IntersectionExampleScenario.node[474].veinsmobility 	maxSpeed 	15.02499961853
scalar IntersectionExampleScenario.node[474].veinsmobility 	totalDistance 	84.324279785156
scalar IntersectionExampleScenario.node[474].veinsmobility 	totalCO2Emission 	35.727019002974
scalar IntersectionExampleScenario.node[475].appl 	VehicleRemoved 	0
scalar IntersectionExampleScenario.node[475].appl 	ArrivedAtDest 	0
scalar IntersectionExampleScenario.node[475].appl 	IntersectionEnterTime 	1793.5
scalar IntersectionExampleScenario.node[475].appl 	IntersectionExitTime 	-1
scalar IntersectionExampleScenario.node[475].appl 	NumberOfCollisions 	0
scalar IntersectionExampleScenario.node[475].nic.phy80211p 	busyTime 	0
scalar IntersectionExampleScenario.node[475].nic.mac1609_4 	ReceivedUnicastPackets 	0
scalar IntersectionExampleScenario.node[475].nic.mac1609_4 	ReceivedBroadcasts 	0
scalar IntersectionExampleScenario.node[475].nic.mac1609_4 	SentPackets 	0
scalar IntersectionExampleScenario.node[475].nic.mac1609_4 	SNIRLostPackets 	0
scalar IntersectionExampleScenario.node[475].nic.mac1609_4 	RXTXLostPackets 	0
scalar IntersectionExampleScenario.node[475].nic.mac1609_4 	TotalLostPackets 	0
scalar IntersectionExampleScenario.node[475].nic.mac1609_4 	DroppedPacketsInMac 	0
scalar IntersectionExampleScenario.node[475].nic.mac1609_4 	TooLittleTime 	0
scalar IntersectionExampleScenario.node[475].nic.mac1609_4 	TimesIntoBackoff 	0
scalar IntersectionExampleScenario.node[475].nic.mac1609_4 	SlotsBackoff 	0
scalar IntersectionExampleScenario.node[475].nic.mac1609_4 	NumInternalContention 	0
scalar IntersectionExampleScenario.node[475].nic.mac1609_4 	totalBusyTime 	0
scalar IntersectionExampleScenario.node[475].veinsmobility 	startTime 	1793.5
scalar IntersectionExampleScenario.node[475].veinsmobility 	totalTime 	6.5
scalar IntersectionExampleScenario.node[475].veinsmobility 	stopTime 	1800
scalar IntersectionExampleScenario.node[475].veinsmobility 	minSpeed 	5.6500000953674
scalar IntersectionExampleScenario.node[475].veinsmobility 	maxSpeed 	15.019633293152
scalar IntersectionExampleScenario.node[475].veinsmobility 	totalDistance 	70.750793457031
scalar IntersectionExampleScenario.node[475].veinsmobility 	totalCO2Emission 	34.749920477501
scalar IntersectionExampleScenario.node[476].appl 	VehicleRemoved 	0
scalar IntersectionExampleScenario.node[476].appl 	ArrivedAtDest 	0
scalar IntersectionExampleScenario.node[476].appl 	IntersectionEnterTime 	1795.25
scalar IntersectionExampleScenario.node[476].appl 	IntersectionExitTime 	-1
scalar IntersectionExampleScenario.node[476].appl 	NumberOfCollisions 	0
scalar IntersectionExampleScenario.node[476].nic.phy80211p 	busyTime 	0
scalar IntersectionExampleScenario.node[476].nic.mac1609_4 	ReceivedUnicastPackets 	0
scalar IntersectionExampleScenario.node[476].nic.mac1609_4 	ReceivedBroadcasts 	0
scalar IntersectionExampleScenario.node[476].nic.mac1609_4 	SentPackets 	0
scalar IntersectionExampleScenario.node[476].nic.mac1609_4 	SNIRLostPackets 	0
scalar IntersectionExampleScenario.node[476].nic.mac1609_4 	RXTXLostPackets 	0
scalar IntersectionExampleScenario.node[476].nic.mac1609_4 	TotalLostPackets 	0
scalar IntersectionExampleScenario.node[476].nic.mac1609_4 	DroppedPacketsInMac 	0
scalar IntersectionExampleScenario.node[476].nic.mac1609_4 	TooLittleTime 	0
scalar IntersectionExampleScenario.node[476].nic.mac1609_4 	TimesIntoBackoff 	0
scalar IntersectionExampleScenario.node[476].nic.mac1609_4 	SlotsBackoff 	0
scalar IntersectionExampleScenario.node[476].nic.mac1609_4 	NumInternalContention 	0
scalar IntersectionExampleScenario.node[476].nic.mac1609_4 	totalBusyTime 	0
scalar IntersectionExampleScenario.node[476].veinsmobility 	startTime 	1795.25
scalar IntersectionExampleScenario.node[476].veinsmobility 	totalTime 	4.75
scalar IntersectionExampleScenario.node[476].veinsmobility 	stopTime 	1800
scalar IntersectionExampleScenario.node[476].veinsmobility 	minSpeed 	5.6500000953674
scalar IntersectionExampleScenario.node[476].veinsmobility 	maxSpeed 	15.64999961853
scalar IntersectionExampleScenario.node[476].veinsmobility 	totalDistance 	51.753784179688
scalar IntersectionExampleScenario.node[476].veinsmobility 	totalCO2Emission 	34.617560088885
scalar IntersectionExampleScenario.node[477].appl 	VehicleRemoved 	0
scalar IntersectionExampleScenario.node[477].appl 	ArrivedAtDest 	0
scalar IntersectionExampleScenario.node[477].appl 	IntersectionEnterTime 	1796.5
scalar IntersectionExampleScenario.node[477].appl 	IntersectionExitTime 	-1
scalar IntersectionExampleScenario.node[477].appl 	NumberOfCollisions 	0
scalar IntersectionExampleScenario.node[477].nic.phy80211p 	busyTime 	0
scalar IntersectionExampleScenario.node[477].nic.mac1609_4 	ReceivedUnicastPackets 	0
scalar IntersectionExampleScenario.node[477].nic.mac1609_4 	ReceivedBroadcasts 	0
scalar IntersectionExampleScenario.node[477].nic.mac1609_4 	SentPackets 	0
scalar IntersectionExampleScenario.node[477].nic.mac1609_4 	SNIRLostPackets 	0
scalar IntersectionExampleScenario.node[477].nic.mac1609_4 	RXTXLostPackets 	0
scalar IntersectionExampleScenario.node[477].nic.mac1609_4 	TotalLostPackets 	0
scalar IntersectionExampleScenario.node[477].nic.mac1609_4 	DroppedPacketsInMac 	0
scalar IntersectionExampleScenario.node[477].nic.mac1609_4 	TooLittleTime 	0
scalar IntersectionExampleScenario.node[477].nic.mac1609_4 	TimesIntoBackoff 	0
scalar IntersectionExampleScenario.node[477].nic.mac1609_4 	SlotsBackoff 	0
scalar IntersectionExampleScenario.node[477].nic.mac1609_4 	NumInternalContention 	0
scalar IntersectionExampleScenario.node[477].nic.mac1609_4 	totalBusyTime 	0
scalar IntersectionExampleScenario.node[477].veinsmobility 	startTime 	1796.5
scalar IntersectionExampleScenario.node[477].veinsmobility 	totalTime 	3.5
scalar IntersectionExampleScenario.node[477].veinsmobility 	stopTime 	1800
scalar IntersectionExampleScenario.node[477].veinsmobility 	minSpeed 	5.6500000953674
scalar IntersectionExampleScenario.node[477].veinsmobility 	maxSpeed 	13.77499961853
scalar IntersectionExampleScenario.node[477].veinsmobility 	totalDistance 	32.900024414062
scalar IntersectionExampleScenario.node[477].veinsmobility 	totalCO2Emission 	25.161289661203
scalar IntersectionExampleScenario.node[478].appl 	VehicleRemoved 	0
scalar IntersectionExampleScenario.node[478].appl 	ArrivedAtDest 	0
scalar IntersectionExampleScenario.node[478].appl 	IntersectionEnterTime 	1799.25
scalar IntersectionExampleScenario.node[478].appl 	IntersectionExitTime 	-1
scalar IntersectionExampleScenario.node[478].appl 	NumberOfCollisions 	0
scalar IntersectionExampleScenario.node[478].nic.phy80211p 	busyTime 	0
scalar IntersectionExampleScenario.node[478].nic.mac1609_4 	ReceivedUnicastPackets 	0
scalar IntersectionExampleScenario.node[478].nic.mac1609_4 	ReceivedBroadcasts 	0
scalar IntersectionExampleScenario.node[478].nic.mac1609_4 	SentPackets 	0
scalar IntersectionExampleScenario.node[478].nic.mac1609_4 	SNIRLostPackets 	0
scalar IntersectionExampleScenario.node[478].nic.mac1609_4 	RXTXLostPackets 	0
scalar IntersectionExampleScenario.node[478].nic.mac1609_4 	TotalLostPackets 	0
scalar IntersectionExampleScenario.node[478].nic.mac1609_4 	DroppedPacketsInMac 	0
scalar IntersectionExampleScenario.node[478].nic.mac1609_4 	TooLittleTime 	0
scalar IntersectionExampleScenario.node[478].nic.mac1609_4 	TimesIntoBackoff 	0
scalar IntersectionExampleScenario.node[478].nic.mac1609_4 	SlotsBackoff 	0
scalar IntersectionExampleScenario.node[478].nic.mac1609_4 	NumInternalContention 	0
scalar IntersectionExampleScenario.node[478].nic.mac1609_4 	totalBusyTime 	0
scalar IntersectionExampleScenario.node[478].veinsmobility 	startTime 	1799.25
scalar IntersectionExampleScenario.node[478].veinsmobility 	totalTime 	0.75
scalar IntersectionExampleScenario.node[478].veinsmobility 	stopTime 	1800
scalar IntersectionExampleScenario.node[478].veinsmobility 	minSpeed 	5.6500000953674
scalar IntersectionExampleScenario.node[478].veinsmobility 	maxSpeed 	6.9000000953674
scalar IntersectionExampleScenario.node[478].veinsmobility 	totalDistance 	4.4718704223633
scalar IntersectionExampleScenario.node[478].veinsmobility 	totalCO2Emission 	2.7116680206665
