file 17147688 1591477948                                        
version 2
run nodebug-6-20200606-17:09:46-10964
attr configname nodebug
attr datetime 20200606-17:09:46
attr experiment nodebug
attr inifile omnetpp.ini
attr iterationvars ""
attr iterationvars2 $repetition=6
attr measurement ""
attr network "\"org.car2x.veins.modules.application.ExtTraCIScenarioManagerLaunchd.IntersectionExampleScenario\""
attr processid 10964
attr repetition 6
attr replication #6
attr resultdir results
attr runnumber 6
attr seedset 6
param **.coreDebug false
param **.debug false
param *.**.nic.mac1609_4.bitrate 18Mbps
param *.**.nic.mac1609_4.txPower 20mW
param *.**.nic.mac1609_4.useServiceChannel false
param *.**.nic.phy80211p.analogueModels "xmldoc(\"config.xml\")"
param *.**.nic.phy80211p.decider "xmldoc(\"config.xml\")"
param *.**.nic.phy80211p.sensitivity -89dBm
param *.**.nic.phy80211p.thermalNoise -110dBm
param *.**.nic.phy80211p.usePropagationDelay true
param *.**.nic.phy80211p.useThermalNoise true
param *.annotations.draw false
param *.connectionManager.alpha 2.0
param *.connectionManager.carrierFrequency "5.890e9 Hz"
param *.connectionManager.pMax 20mW
param *.connectionManager.sat -89dBm
param *.connectionManager.sendDirect true
param *.manager.autoShutdown true
param *.manager.host "\"localhost\""
param *.manager.launchConfig "xmldoc(\"paramics.launchd.xml\")"
param *.manager.margin 25
param *.manager.moduleDisplayString "\"\""
param *.manager.moduleName "\"node\""
param *.manager.moduleType "\"org.car2x.veins.nodes.Car\""
param *.manager.port 9999
param *.manager.updateInterval 250ms
param *.node[*0].veinsmobility.accidentCount 0
param *.node[*0].veinsmobility.accidentDuration 30s
param *.node[*0].veinsmobility.accidentStart 75s
param *.node[*].appl.LiderSelectZoneRadio 55.0
param *.node[*].appl.ShareDataZoneRadio 110.0
param *.node[*].appl.TiempoSemaforo 30.0
param *.node[*].appl.beaconInterval 1s
param *.node[*].appl.beaconPriority 3
param *.node[*].appl.dataOnSch false
param *.node[*].appl.dataPriority 2
param *.node[*].appl.debug false
param *.node[*].appl.headerLength "256 bit"
param *.node[*].appl.maxOffset 0.005s
param *.node[*].appl.sendBeacons false
param *.node[*].appl.sendData true
param *.node[*].applType "\"Dummy\""
param *.node[*].mobilityType "\"TraCIMobility\""
param *.node[*].mobilityType.debug true
param *.node[*].veinsmobility.x 0
param *.node[*].veinsmobility.y 0
param *.node[*].veinsmobility.z 1.895
param *.node[*].veinsmobilityType "\"org.car2x.veins.modules.mobility.traci.TraCIMobility\""
param *.node[*].veinsmobilityType.debug true
param *.playgroundSizeX 8500m
param *.playgroundSizeY 8500m
param *.playgroundSizeZ 50m
param *.world.use2D false
param *.world.useTorus false

vector 7131  IntersectionExampleScenario.manager  vehiclesinsim  ETV
attr type  int
vector 7132  IntersectionExampleScenario.manager  realtime  ETV
attr type  int
attr unit  s
vector 7135  IntersectionExampleScenario.node[0].veinsmobility  posx  ETV
vector 7136  IntersectionExampleScenario.node[0].veinsmobility  posy  ETV
vector 7137  IntersectionExampleScenario.node[0].veinsmobility  speed  ETV
vector 7138  IntersectionExampleScenario.node[0].veinsmobility  acceleration  ETV
vector 7139  IntersectionExampleScenario.node[0].veinsmobility  co2emission  ETV
vector 7142  IntersectionExampleScenario.node[1].veinsmobility  posx  ETV
vector 7143  IntersectionExampleScenario.node[1].veinsmobility  posy  ETV
vector 7149  IntersectionExampleScenario.node[2].veinsmobility  posx  ETV
vector 7150  IntersectionExampleScenario.node[2].veinsmobility  posy  ETV
vector 7144  IntersectionExampleScenario.node[1].veinsmobility  speed  ETV
vector 7145  IntersectionExampleScenario.node[1].veinsmobility  acceleration  ETV
vector 7146  IntersectionExampleScenario.node[1].veinsmobility  co2emission  ETV
vector 7151  IntersectionExampleScenario.node[2].veinsmobility  speed  ETV
vector 7152  IntersectionExampleScenario.node[2].veinsmobility  acceleration  ETV
vector 7153  IntersectionExampleScenario.node[2].veinsmobility  co2emission  ETV
vector 7156  IntersectionExampleScenario.node[3].veinsmobility  posx  ETV
vector 7157  IntersectionExampleScenario.node[3].veinsmobility  posy  ETV
vector 7158  IntersectionExampleScenario.node[3].veinsmobility  speed  ETV
vector 7159  IntersectionExampleScenario.node[3].veinsmobility  acceleration  ETV
vector 7160  IntersectionExampleScenario.node[3].veinsmobility  co2emission  ETV
vector 7163  IntersectionExampleScenario.node[4].veinsmobility  posx  ETV
vector 7164  IntersectionExampleScenario.node[4].veinsmobility  posy  ETV
vector 7165  IntersectionExampleScenario.node[4].veinsmobility  speed  ETV
vector 7166  IntersectionExampleScenario.node[4].veinsmobility  acceleration  ETV
vector 7167  IntersectionExampleScenario.node[4].veinsmobility  co2emission  ETV
vector 7170  IntersectionExampleScenario.node[5].veinsmobility  posx  ETV
vector 7171  IntersectionExampleScenario.node[5].veinsmobility  posy  ETV
vector 7172  IntersectionExampleScenario.node[5].veinsmobility  speed  ETV
vector 7173  IntersectionExampleScenario.node[5].veinsmobility  acceleration  ETV
vector 7174  IntersectionExampleScenario.node[5].veinsmobility  co2emission  ETV
vector 7177  IntersectionExampleScenario.node[6].veinsmobility  posx  ETV
vector 7178  IntersectionExampleScenario.node[6].veinsmobility  posy  ETV
vector 7179  IntersectionExampleScenario.node[6].veinsmobility  speed  ETV
vector 7180  IntersectionExampleScenario.node[6].veinsmobility  acceleration  ETV
vector 7181  IntersectionExampleScenario.node[6].veinsmobility  co2emission  ETV
vector 7184  IntersectionExampleScenario.node[7].veinsmobility  posx  ETV
vector 7185  IntersectionExampleScenario.node[7].veinsmobility  posy  ETV
vector 7186  IntersectionExampleScenario.node[7].veinsmobility  speed  ETV
vector 7187  IntersectionExampleScenario.node[7].veinsmobility  acceleration  ETV
vector 7188  IntersectionExampleScenario.node[7].veinsmobility  co2emission  ETV
vector 7191  IntersectionExampleScenario.node[8].veinsmobility  posx  ETV
vector 7192  IntersectionExampleScenario.node[8].veinsmobility  posy  ETV
vector 7193  IntersectionExampleScenario.node[8].veinsmobility  speed  ETV
vector 7194  IntersectionExampleScenario.node[8].veinsmobility  acceleration  ETV
vector 7195  IntersectionExampleScenario.node[8].veinsmobility  co2emission  ETV
vector 7198  IntersectionExampleScenario.node[9].veinsmobility  posx  ETV
vector 7199  IntersectionExampleScenario.node[9].veinsmobility  posy  ETV
vector 7200  IntersectionExampleScenario.node[9].veinsmobility  speed  ETV
vector 7201  IntersectionExampleScenario.node[9].veinsmobility  acceleration  ETV
vector 7202  IntersectionExampleScenario.node[9].veinsmobility  co2emission  ETV
vector 7205  IntersectionExampleScenario.node[10].veinsmobility  posx  ETV
vector 7206  IntersectionExampleScenario.node[10].veinsmobility  posy  ETV
vector 7207  IntersectionExampleScenario.node[10].veinsmobility  speed  ETV
vector 7208  IntersectionExampleScenario.node[10].veinsmobility  acceleration  ETV
vector 7209  IntersectionExampleScenario.node[10].veinsmobility  co2emission  ETV
vector 7212  IntersectionExampleScenario.node[11].veinsmobility  posx  ETV
vector 7213  IntersectionExampleScenario.node[11].veinsmobility  posy  ETV
vector 7214  IntersectionExampleScenario.node[11].veinsmobility  speed  ETV
vector 7215  IntersectionExampleScenario.node[11].veinsmobility  acceleration  ETV
vector 7216  IntersectionExampleScenario.node[11].veinsmobility  co2emission  ETV
7139	7630 5935 12 2630 1.75 55 214 0.973 12.099024792222 600.72392154727 3219.650350716
7138	13565 5542 12 2630 1.75 55 214 -7.8776445388794 4 40.038900375366 509.53881719338
7137	19107 5716 9 2630 1.5 55 215 0 16.27499961853 2208.051772356 31990.484749026
7136	24823 6732 6 2630 1.25 55 216 483.14999389648 785.82187652588 119178.1400528 67737469.506811
7135	31555 6744 6 2630 1.25 55 216 483.14999389648 734.68109130859 112645.42147827 59815468.698577
vector 7219  IntersectionExampleScenario.node[12].veinsmobility  posx  ETV
vector 7220  IntersectionExampleScenario.node[12].veinsmobility  posy  ETV
vector 7221  IntersectionExampleScenario.node[12].veinsmobility  speed  ETV
vector 7222  IntersectionExampleScenario.node[12].veinsmobility  acceleration  ETV
vector 7223  IntersectionExampleScenario.node[12].veinsmobility  co2emission  ETV
7146	38695 5913 75 2777 6.5 58 207 0.973 11.648172402475 576.85199316439 2925.4276254498
7145	44608 5331 75 2777 6.5 58 207 -7.092942237854 4 38.341367721558 495.58487250796
7144	49939 5696 68 2777 6.25 58 208 0 15.64999961853 2175.2731006145 30603.903319959
7143	55635 6552 63 2777 6 58 209 184.17810058594 483.24322509766 86577.162628174 37804541.393192
7142	62187 6576 63 2777 6 58 209 486.85000610352 731.78132629395 109848.1421814 58739230.644552
7153	68763 6178 82 2821 6.75 59 210 0.973 11.54047740176 590.96899678389 2927.5634902606
7152	74941 5839 82 2821 6.75 59 210 -4.5 2.5 38.680875778198 474.20152592993
7151	80780 6103 75 2821 6.5 59 211 0 15.661409378052 2314.9675508589 32672.444064292
7150	86883 6651 68 2821 6.25 59 212 159.76721191406 733.55143737793 93672.155288696 46169831.028683
7149	93534 6683 68 2821 6.25 59 212 486.85000610352 486.85000610352 103212.20129395 50248860.829914
7174	100217 5163 434 2843 16.75 59.5 172 0.973 11.648172402475 555.60366507102 2972.0768805187
7173	105380 5151 434 2843 16.75 59.5 172 -4.5 2.5 37.832105636597 340.99265951063
7172	110531 5472 421 2843 16.5 59.5 173 5.6500000953674 15.64999961853 2206.2274026871 29740.230547868
7171	116003 5524 408 2843 16.25 59.5 174 483.14999389648 785.82187652588 98886.939811707 58016423.384574
7170	121527 5507 408 2843 16.25 59.5 174 483.14999389648 732.73889160156 92562.7084198 50232074.73222
7160	127034 5980 205 2932 11 61.5 203 0.973 11.648172402475 593.51614914047 3030.8347844341
7159	133014 5990 205 2932 11 61.5 203 -4.1716384887695 2.5 41.057416915894 400.07429319787
7158	139004 6151 196 2932 10.75 61.5 204 0 15.935544013977 2257.174997475 31681.535740223
7157	145155 6487 187 2932 10.5 61.5 205 166.12518310547 483.14999389648 82738.644165039 35521092.245419
7156	151642 6486 187 2932 10.5 61.5 205 486.85000610352 733.18984985352 107677.98007202 57542347.780474
vector 7226  IntersectionExampleScenario.node[13].veinsmobility  posx  ETV
vector 7227  IntersectionExampleScenario.node[13].veinsmobility  posy  ETV
vector 7228  IntersectionExampleScenario.node[13].veinsmobility  speed  ETV
vector 7229  IntersectionExampleScenario.node[13].veinsmobility  acceleration  ETV
vector 7230  IntersectionExampleScenario.node[13].veinsmobility  co2emission  ETV
vector 7233  IntersectionExampleScenario.node[14].veinsmobility  posx  ETV
vector 7234  IntersectionExampleScenario.node[14].veinsmobility  posy  ETV
vector 7235  IntersectionExampleScenario.node[14].veinsmobility  speed  ETV
vector 7236  IntersectionExampleScenario.node[14].veinsmobility  acceleration  ETV
vector 7237  IntersectionExampleScenario.node[14].veinsmobility  co2emission  ETV
7167	158920 6023 353 3259 15 67.75 212 0.973 12.099024792222 605.96608576922 3246.789392854
7166	164943 5491 353 3259 15 67.75 212 -6.9978852272034 4 41.227170944214 489.15880119239
7165	170434 5773 342 3259 14.75 67.75 213 0 16.27499961853 2207.818998456 32375.34235052
7164	176207 6794 331 3259 14.5 67.75 214 235.68029785156 486.85000610352 96065.12411499 44173009.454652
7163	183001 6794 331 3259 14.5 67.75 214 483.14999389648 785.82187652588 118089.64432526 67131273.542195
7181	189795 6155 503 3334 18 69 205 0.97097919656647 12.26218747632 601.318986024 3332.1612227542
7180	195950 6153 503 3334 18 69 205 -4.5 2.5000009536743 41.396924972534 462.6176661206
7179	202103 6243 488 3334 17.75 69 206 0 16.5 2229.6620337125 32107.00990694
7178	208346 6578 473 3334 17.5 69 207 486.85000610352 731.583984375 108493.74810791 57830135.030133
7177	214924 6569 473 3334 17.5 69 207 486.85000610352 798.59687805176 116268.05091095 67381578.850903
vector 7240  IntersectionExampleScenario.node[15].veinsmobility  posx  ETV
vector 7241  IntersectionExampleScenario.node[15].veinsmobility  posy  ETV
vector 7242  IntersectionExampleScenario.node[15].veinsmobility  speed  ETV
vector 7243  IntersectionExampleScenario.node[15].veinsmobility  acceleration  ETV
vector 7244  IntersectionExampleScenario.node[15].veinsmobility  co2emission  ETV
7188	221889 4667 1467 3566 34 72.75 156 0.973 12.553400930962 585.57765301321 4034.6874405585
7187	226556 4424 1467 3566 34 72.75 156 -3.2197303771973 2.5 42.585195541382 380.70613897359
7186	230980 4681 1450 3566 33.75 72.75 157 5.6500000953674 16.89999961853 2178.6578445435 31920.941940189
7185	235661 5054 1433 3566 33.5 72.75 158 486.85000610352 731.36613464355 84506.742172241 46063341.038987
7184	240715 5044 1433 3566 33.5 72.75 158 486.81265258789 785.82187652588 90506.341362 53532156.495897
vector 7247  IntersectionExampleScenario.node[16].veinsmobility  posx  ETV
vector 7248  IntersectionExampleScenario.node[16].veinsmobility  posy  ETV
vector 7249  IntersectionExampleScenario.node[16].veinsmobility  speed  ETV
vector 7254  IntersectionExampleScenario.node[17].veinsmobility  posx  ETV
vector 7255  IntersectionExampleScenario.node[17].veinsmobility  posy  ETV
vector 7250  IntersectionExampleScenario.node[16].veinsmobility  acceleration  ETV
vector 7251  IntersectionExampleScenario.node[16].veinsmobility  co2emission  ETV
vector 7256  IntersectionExampleScenario.node[17].veinsmobility  speed  ETV
vector 7257  IntersectionExampleScenario.node[17].veinsmobility  acceleration  ETV
vector 7258  IntersectionExampleScenario.node[17].veinsmobility  co2emission  ETV
7209	246551 4779 2289 4285 48.25 86.25 153 0.973 11.648172402475 472.36109078316 2472.4626324617
7208	251330 4310 2289 4285 48.25 86.25 153 -3.1343994140625 2.5 38.850629806519 190.00306334647
7207	255640 4700 2276 4285 48 86.25 154 5.6500000953674 15.64999961853 2212.972902298 32466.918732143
7206	260340 4960 2263 4285 47.75 86.25 155 483.14999389648 483.14999389648 74888.249053955 36182257.073337
7205	265300 4931 2263 4285 47.75 86.25 155 184.17810058594 732.23753356934 69432.670837402 35197366.860318
7195	270231 5638 1978 4454 41.75 89.5 192 0.973 12.099024792222 587.25361025535 3231.3666574628
7194	275869 4930 1978 4454 41.75 89.5 192 -9.2126979827881 4 41.396924972534 521.82273223514
7193	280799 5449 1962 4454 41.5 89.5 193 0 16.27499961853 2194.9300296307 32233.511931395
7192	286248 6177 1945 4454 41.25 89.5 194 184.17810058594 486.85000610352 80061.802124023 34942217.821487
7191	292425 6205 1945 4454 41.25 89.5 194 239.17236328125 486.85000610352 86567.331390381 39606823.726727
vector 7261  IntersectionExampleScenario.node[18].veinsmobility  posx  ETV
vector 7262  IntersectionExampleScenario.node[18].veinsmobility  posy  ETV
vector 7263  IntersectionExampleScenario.node[18].veinsmobility  speed  ETV
vector 7264  IntersectionExampleScenario.node[18].veinsmobility  acceleration  ETV
vector 7265  IntersectionExampleScenario.node[18].veinsmobility  co2emission  ETV
7202	299026 5612 2175 4627 45.75 93 190 0.973 11.810082123732 565.31897237902 3028.8191911478
7201	304638 5299 2175 4627 45.75 93 190 -6.8117866516113 4 38.850629806519 493.85133582851
7200	309937 5472 2164 4627 45.5 93 191 0 15.875 2184.2243671417 30943.080517839
7199	315409 6133 2152 4627 45.25 93 192 486.75677490234 785.82187652588 107627.69129181 62209044.256936
7198	321542 6137 2152 4627 45.25 93 192 236.02459716797 483.14999389648 84598.133270264 38269735.880367
vector 7268  IntersectionExampleScenario.node[19].veinsmobility  posx  ETV
vector 7269  IntersectionExampleScenario.node[19].veinsmobility  posy  ETV
vector 7270  IntersectionExampleScenario.node[19].veinsmobility  speed  ETV
vector 7271  IntersectionExampleScenario.node[19].veinsmobility  acceleration  ETV
vector 7272  IntersectionExampleScenario.node[19].veinsmobility  co2emission  ETV
7230	328075 4810 2980 5042 62.5 100.75 154 0.973 11.648172402475 469.21496155858 2457.4558325946
7229	332885 4379 2980 5042 62.5 100.75 154 -3.0418586730957 2.5 38.171613693237 190.18313269967
7228	337264 4736 2967 5042 62.25 100.75 155 5.6500000953674 15.64999961853 2212.8071784973 32216.6123788
7227	342000 4963 2954 5042 62 100.75 156 184.17810058594 732.17820739746 69909.006652832 35451839.889797
7226	346963 4996 2954 5042 62 100.75 156 486.85000610352 486.85000610352 75948.600952148 36975576.837107
vector 7275  IntersectionExampleScenario.node[20].veinsmobility  posx  ETV
vector 7276  IntersectionExampleScenario.node[20].veinsmobility  posy  ETV
vector 7277  IntersectionExampleScenario.node[20].veinsmobility  speed  ETV
vector 7282  IntersectionExampleScenario.node[21].veinsmobility  posx  ETV
vector 7283  IntersectionExampleScenario.node[21].veinsmobility  posy  ETV
vector 7278  IntersectionExampleScenario.node[20].veinsmobility  acceleration  ETV
vector 7279  IntersectionExampleScenario.node[20].veinsmobility  co2emission  ETV
vector 7284  IntersectionExampleScenario.node[21].veinsmobility  speed  ETV
vector 7285  IntersectionExampleScenario.node[21].veinsmobility  acceleration  ETV
vector 7286  IntersectionExampleScenario.node[21].veinsmobility  co2emission  ETV
7237	352751 4952 3244 5361 67.5 107 159 0.973 11.648172402475 506.75492208516 2748.4788718383
7236	357703 4510 3244 5361 67.5 107 159 -3.5987949371338 2.5 38.511121749878 283.05538229958
7235	362213 4841 3229 5361 67.25 107 160 5.6500000953674 15.64999961853 2185.1222147942 31180.549676965
7234	367054 5171 3214 5361 67 107 161 486.85000610352 733.294921875 86555.062759399 47456659.559802
7233	372225 5168 3214 5361 67 107 161 486.6611328125 785.82187652588 92175.98639679 54512584.595682
vector 7289  IntersectionExampleScenario.node[22].veinsmobility  posx  ETV
vector 7290  IntersectionExampleScenario.node[22].veinsmobility  posy  ETV
vector 7291  IntersectionExampleScenario.node[22].veinsmobility  speed  ETV
vector 7292  IntersectionExampleScenario.node[22].veinsmobility  acceleration  ETV
vector 7293  IntersectionExampleScenario.node[22].veinsmobility  co2emission  ETV
7216	377789 6996 2501 5738 52.25 114 248 0.97223939240464 11.648172402475 622.2332943171 2996.2488634736
7215	384785 6194 2501 5738 52.25 114 248 -9.7177848815918 4 38.680875778198 529.07479256839
7214	390979 6587 2486 5738 52 114 249 0 15.64999961853 2212.5613408089 31506.397079176
7213	397566 8045 2471 5738 51.75 114 250 483.14999389648 734.76512145996 129252.69023132 67958194.976888
7212	405611 8022 2471 5738 51.75 114 250 177.97814941406 486.85000610352 105682.74752808 46867507.299892
7223	413633 7196 2667 5782 55.75 115 238 0.973 11.990504229548 627.69704220717 3145.8991143083
7222	420829 7080 2667 5782 55.75 115 238 -4.5 2.5 39.869146347046 456.39058478289
7221	427909 7256 2654 5782 55.5 115 239 0 16.125 2269.7677686755 32535.140231613
7220	435165 7741 2641 5782 55.25 115 240 483.14999389648 483.14999389648 115955.99853516 56024139.984521
7219	442906 7702 2641 5782 55.25 115 240 171.43438720703 734.04359436035 107917.57154846 52922036.33777
vector 7296  IntersectionExampleScenario.node[23].veinsmobility  posx  ETV
vector 7297  IntersectionExampleScenario.node[23].veinsmobility  posy  ETV
vector 7298  IntersectionExampleScenario.node[23].veinsmobility  speed  ETV
vector 7299  IntersectionExampleScenario.node[23].veinsmobility  acceleration  ETV
vector 7300  IntersectionExampleScenario.node[23].veinsmobility  co2emission  ETV
vector 7303  IntersectionExampleScenario.node[24].veinsmobility  posx  ETV
vector 7304  IntersectionExampleScenario.node[24].veinsmobility  posy  ETV
vector 7305  IntersectionExampleScenario.node[24].veinsmobility  speed  ETV
vector 7306  IntersectionExampleScenario.node[24].veinsmobility  acceleration  ETV
vector 7307  IntersectionExampleScenario.node[24].veinsmobility  co2emission  ETV
7244	451400 6551 3413 6299 70.25 126 224 0.973 11.200708441096 572.98549050749 2701.4829916801
7243	457951 5938 3413 6299 70.25 126 224 -7.2424693107605 4 35.455564498901 453.51298811648
7242	463889 6341 3396 6299 70 126 225 0 15.02499961853 2213.7840818167 30144.579357717
7241	470230 7322 3379 6299 69.75 126 226 235.85095214844 785.82187652588 116147.32549286 64017985.014606
7240	477552 7336 3379 6299 69.75 126 226 483.14999389648 483.14999389648 109191.89862061 52756065.152091
vector 7310  IntersectionExampleScenario.node[25].veinsmobility  posx  ETV
vector 7311  IntersectionExampleScenario.node[25].veinsmobility  posy  ETV
vector 7312  IntersectionExampleScenario.node[25].veinsmobility  speed  ETV
7258	485117 5397 3996 6323 81.25 126.5 182 0.973 12.26218747632 564.42319307979 3306.2334800903
7257	490514 5562 3996 6323 81.25 126.5 182 -3.1426105499268 2.5 41.227170944214 341.28466943557
7256	496076 5624 3981 6323 81 126.5 183 2.5354225635529 16.5 2177.166759491 29860.302578559
7255	501700 5983 3966 6323 80.75 126.5 184 486.85000610352 785.82187652588 104217.89310455 60785762.045883
7254	507683 5981 3966 6323 80.75 126.5 184 239.01104736328 483.14999389648 81203.3934021 36762575.097586
vector 7313  IntersectionExampleScenario.node[25].veinsmobility  acceleration  ETV
vector 7314  IntersectionExampleScenario.node[25].veinsmobility  co2emission  ETV
vector 7317  IntersectionExampleScenario.node[26].veinsmobility  posx  ETV
vector 7318  IntersectionExampleScenario.node[26].veinsmobility  posy  ETV
vector 7324  IntersectionExampleScenario.node[27].veinsmobility  posx  ETV
vector 7325  IntersectionExampleScenario.node[27].veinsmobility  posy  ETV
vector 7319  IntersectionExampleScenario.node[26].veinsmobility  speed  ETV
7265	514212 4760 4575 6461 92 129.25 150 0.973 12.353032912318 520.60487961416 3116.9760927084
7264	518972 4362 4575 6461 92 129.25 150 -3.6493186950684 2.5 42.415441513062 273.61805602911
7263	523334 4639 4562 6461 91.75 129.25 151 5.6500000953674 16.625 2207.0421237946 33469.869312612
7262	527973 4948 4549 6461 91.5 129.25 152 184.17810058594 487.06820678711 60396.149963379 25718416.695343
7261	532921 4976 4549 6461 91.5 129.25 152 237.21948242188 486.85000610352 66117.315948486 29660030.984957
vector 7320  IntersectionExampleScenario.node[26].veinsmobility  acceleration  ETV
vector 7321  IntersectionExampleScenario.node[26].veinsmobility  co2emission  ETV
vector 7326  IntersectionExampleScenario.node[27].veinsmobility  speed  ETV
vector 7327  IntersectionExampleScenario.node[27].veinsmobility  acceleration  ETV
vector 7328  IntersectionExampleScenario.node[27].veinsmobility  co2emission  ETV
vector 7331  IntersectionExampleScenario.node[28].veinsmobility  posx  ETV
vector 7332  IntersectionExampleScenario.node[28].veinsmobility  posy  ETV
vector 7333  IntersectionExampleScenario.node[28].veinsmobility  speed  ETV
vector 7334  IntersectionExampleScenario.node[28].veinsmobility  acceleration  ETV
vector 7335  IntersectionExampleScenario.node[28].veinsmobility  co2emission  ETV
7272	538704 5108 4761 6811 95.5 135 159 0.973 11.54047740176 471.06205316598 2350.1890539425
7271	543812 4499 4761 6811 95.5 135 159 -3.2439956665039 2.5 37.32285118103 182.08171388819
7270	548311 5025 4746 6811 95.25 135 160 5.6500000953674 15.5 2260.4949398041 32523.48739855
7269	553336 5265 4731 6811 95 135 161 174.53436279297 734.60621643066 71608.069198608 36290292.506929
7268	558601 5291 4731 6811 95 135 161 486.85000610352 486.85000610352 78382.850982666 38160691.479322
vector 7338  IntersectionExampleScenario.node[29].veinsmobility  posx  ETV
vector 7339  IntersectionExampleScenario.node[29].veinsmobility  posy  ETV
vector 7345  IntersectionExampleScenario.node[30].veinsmobility  posx  ETV
vector 7346  IntersectionExampleScenario.node[30].veinsmobility  posy  ETV
vector 7340  IntersectionExampleScenario.node[29].veinsmobility  speed  ETV
vector 7347  IntersectionExampleScenario.node[30].veinsmobility  speed  ETV
vector 7341  IntersectionExampleScenario.node[29].veinsmobility  acceleration  ETV
vector 7342  IntersectionExampleScenario.node[29].veinsmobility  co2emission  ETV
vector 7348  IntersectionExampleScenario.node[30].veinsmobility  acceleration  ETV
vector 7349  IntersectionExampleScenario.node[30].veinsmobility  co2emission  ETV
7251	564684 6788 3966 7060 80.75 138.75 233 0.973 11.200708441096 583.510609676 2716.9685606314
7250	571472 6121 3966 7060 80.75 138.75 233 -8.6476802825928 4 35.795072555542 478.27576012592
7249	577593 6525 3953 7060 80.5 138.75 234 0 15.02499961853 2203.4841990471 30168.2151068
7248	584118 7678 3940 7060 80.25 138.75 235 486.85000610352 486.85000610352 114409.75143433 55700388.184103
7247	591796 7668 3940 7060 80.25 138.75 235 238.29931640625 785.82187652588 120814.29132843 66371362.917893
vector 7352  IntersectionExampleScenario.node[31].veinsmobility  posx  ETV
vector 7353  IntersectionExampleScenario.node[31].veinsmobility  posy  ETV
vector 7354  IntersectionExampleScenario.node[31].veinsmobility  speed  ETV
vector 7355  IntersectionExampleScenario.node[31].veinsmobility  acceleration  ETV
vector 7356  IntersectionExampleScenario.node[31].veinsmobility  co2emission  ETV
vector 7359  IntersectionExampleScenario.node[32].veinsmobility  posx  ETV
vector 7360  IntersectionExampleScenario.node[32].veinsmobility  posy  ETV
vector 7361  IntersectionExampleScenario.node[32].veinsmobility  speed  ETV
vector 7366  IntersectionExampleScenario.node[33].veinsmobility  posx  ETV
vector 7367  IntersectionExampleScenario.node[33].veinsmobility  posy  ETV
vector 7362  IntersectionExampleScenario.node[32].veinsmobility  acceleration  ETV
vector 7363  IntersectionExampleScenario.node[32].veinsmobility  co2emission  ETV
vector 7368  IntersectionExampleScenario.node[33].veinsmobility  speed  ETV
vector 7369  IntersectionExampleScenario.node[33].veinsmobility  acceleration  ETV
vector 7370  IntersectionExampleScenario.node[33].veinsmobility  co2emission  ETV
vector 7373  IntersectionExampleScenario.node[34].veinsmobility  posx  ETV
vector 7374  IntersectionExampleScenario.node[34].veinsmobility  posy  ETV
vector 7380  IntersectionExampleScenario.node[35].veinsmobility  posx  ETV
vector 7381  IntersectionExampleScenario.node[35].veinsmobility  posy  ETV
vector 7375  IntersectionExampleScenario.node[34].veinsmobility  speed  ETV
vector 7376  IntersectionExampleScenario.node[34].veinsmobility  acceleration  ETV
vector 7377  IntersectionExampleScenario.node[34].veinsmobility  co2emission  ETV
vector 7382  IntersectionExampleScenario.node[35].veinsmobility  speed  ETV
vector 7383  IntersectionExampleScenario.node[35].veinsmobility  acceleration  ETV
vector 7384  IntersectionExampleScenario.node[35].veinsmobility  co2emission  ETV
7279	601444 5304 5211 7678 104.5 145.5 165 0.973 11.00486315618 465.70744995404 2233.1085029201
7278	606748 4756 5211 7678 104.5 145.5 165 -3.5116348266602 2.5 34.097539901733 205.01081945913
7277	611504 5189 5198 7678 104.25 145.5 166 5.6500000953674 14.75 2199.3473567963 29785.974815717
7276	616693 5503 5185 7678 104 145.5 167 238.15185546875 486.85000610352 72400.653533936 32392237.827772
7275	622196 5504 5185 7678 104 145.5 167 482.93939208984 785.82187652588 95490.126312256 56439540.161659
vector 7387  IntersectionExampleScenario.node[36].veinsmobility  posx  ETV
vector 7388  IntersectionExampleScenario.node[36].veinsmobility  posy  ETV
vector 7389  IntersectionExampleScenario.node[36].veinsmobility  speed  ETV
vector 7390  IntersectionExampleScenario.node[36].veinsmobility  acceleration  ETV
vector 7391  IntersectionExampleScenario.node[36].veinsmobility  co2emission  ETV
vector 7394  IntersectionExampleScenario.node[37].veinsmobility  posx  ETV
vector 7395  IntersectionExampleScenario.node[37].veinsmobility  posy  ETV
vector 7396  IntersectionExampleScenario.node[37].veinsmobility  speed  ETV
vector 7397  IntersectionExampleScenario.node[37].veinsmobility  acceleration  ETV
vector 7398  IntersectionExampleScenario.node[37].veinsmobility  co2emission  ETV
7286	628492 5462 5241 8047 105 148.75 176 0.973 11.90022389248 555.90320012118 3047.9822542324
7285	633954 5160 5241 8047 105 148.75 176 -8.1522026062012 4 39.529638290405 492.74633385995
7284	639114 5365 5226 8047 104.75 148.75 177 0 16 2186.4730093479 31364.557238738
7283	644479 5868 5211 8047 104.5 148.75 178 483.14999389648 734.1416015625 94309.250534058 50970010.706542
7282	650347 5855 5211 8047 104.5 148.75 178 184.17810058594 486.85000610352 72301.239593506 31219815.915312
vector 7401  IntersectionExampleScenario.node[38].veinsmobility  posx  ETV
vector 7402  IntersectionExampleScenario.node[38].veinsmobility  posy  ETV
vector 7403  IntersectionExampleScenario.node[38].veinsmobility  speed  ETV
vector 7404  IntersectionExampleScenario.node[38].veinsmobility  acceleration  ETV
vector 7405  IntersectionExampleScenario.node[38].veinsmobility  co2emission  ETV
7307	656598 4719 5989 8917 119.5 156.25 148 0.87724236611116 12.80944146078 531.02097515224 3375.6121684918
7306	661317 4379 5989 8917 119.5 156.25 148 -3.4892272949219 2.5 43.943227767944 287.49975043338
7305	665696 4594 5976 8917 119.25 156.25 149 5.6500000953674 17.25 2213.3555669785 34236.760046016
7304	670290 4945 5963 8917 119 156.25 150 483.14999389648 734.35934448242 80280.992767334 43864362.28945
7303	675235 4920 5963 8917 119 156.25 150 184.17810058594 486.85000610352 59620.877349854 25402640.620706
vector 7408  IntersectionExampleScenario.node[39].veinsmobility  posx  ETV
vector 7409  IntersectionExampleScenario.node[39].veinsmobility  posy  ETV
vector 7410  IntersectionExampleScenario.node[39].veinsmobility  speed  ETV
vector 7411  IntersectionExampleScenario.node[39].veinsmobility  acceleration  ETV
vector 7412  IntersectionExampleScenario.node[39].veinsmobility  co2emission  ETV
vector 7415  IntersectionExampleScenario.node[40].veinsmobility  posx  ETV
vector 7416  IntersectionExampleScenario.node[40].veinsmobility  posy  ETV
vector 7417  IntersectionExampleScenario.node[40].veinsmobility  speed  ETV
vector 7418  IntersectionExampleScenario.node[40].veinsmobility  acceleration  ETV
vector 7419  IntersectionExampleScenario.node[40].veinsmobility  co2emission  ETV
vector 7422  IntersectionExampleScenario.node[41].veinsmobility  posx  ETV
vector 7423  IntersectionExampleScenario.node[41].veinsmobility  posy  ETV
vector 7424  IntersectionExampleScenario.node[41].veinsmobility  speed  ETV
vector 7425  IntersectionExampleScenario.node[41].veinsmobility  acceleration  ETV
vector 7426  IntersectionExampleScenario.node[41].veinsmobility  co2emission  ETV
7321	681343 4669 6476 9970 129.5 165.75 146 0.96997852711604 12.553400930962 500.07528890332 3042.5637318576
7320	686012 4394 6476 9970 129.5 165.75 146 -3.3901557922363 2.5 42.585195541382 233.38468607585
7319	690406 4594 6461 9970 129.25 165.75 147 5.6500000953674 16.89999961853 2210.9946861267 34146.540630747
7318	695000 4855 6448 9970 129 165.75 148 184.17810058594 731.46829223633 66050.750518799 33386510.150891
7317	699855 4884 6448 9970 129 165.75 148 486.85000610352 486.85000610352 72053.80090332 35079393.409563
vector 7429  IntersectionExampleScenario.node[42].veinsmobility  posx  ETV
vector 7430  IntersectionExampleScenario.node[42].veinsmobility  posy  ETV
vector 7431  IntersectionExampleScenario.node[42].veinsmobility  speed  ETV
vector 7432  IntersectionExampleScenario.node[42].veinsmobility  acceleration  ETV
vector 7433  IntersectionExampleScenario.node[42].veinsmobility  co2emission  ETV
7328	705135 5039 6491 10288 129.75 168.5 156 0.973 11.54047740176 464.21906764276 2334.0371168052
7327	710174 4493 6491 10288 129.75 168.5 156 -3.3398780822754 2.5 37.15309715271 186.64487440163
7326	714667 4954 6476 10288 129.5 168.5 157 5.6500000953674 15.5 2213.6558599472 31783.541796294
7325	719621 5217 6461 10288 129.25 168.5 158 237.51141357422 785.82187652588 82399.831138611 47156578.047039
7324	724838 5225 6461 10288 129.25 168.5 158 483.14999389648 483.14999389648 76337.699035645 36882558.823143
vector 7436  IntersectionExampleScenario.node[43].veinsmobility  posx  ETV
vector 7437  IntersectionExampleScenario.node[43].veinsmobility  posy  ETV
vector 7438  IntersectionExampleScenario.node[43].veinsmobility  speed  ETV
vector 7439  IntersectionExampleScenario.node[43].veinsmobility  acceleration  ETV
vector 7440  IntersectionExampleScenario.node[43].veinsmobility  co2emission  ETV
vector 7443  IntersectionExampleScenario.node[44].veinsmobility  posx  ETV
vector 7444  IntersectionExampleScenario.node[44].veinsmobility  posy  ETV
7293	730611 7108 5622 10770 111.75 172.75 245 0.973 11.90022389248 629.75218827052 3093.0802098858
7292	737719 6646 5622 10770 111.75 172.75 245 -8.2593545913696 4 39.869146347046 544.67223013334
7291	744365 6704 5609 10770 111.5 172.75 246 0 16 2203.3211746216 32054.37134611
7290	751069 8180 5596 10770 111.25 172.75 247 486.85000610352 486.85000610352 120251.95150757 58544663.325419
7289	759249 8170 5596 10770 111.25 172.75 247 238.82672119141 785.82187652588 126912.26538849 69278021.52066
vector 7445  IntersectionExampleScenario.node[44].veinsmobility  speed  ETV
vector 7446  IntersectionExampleScenario.node[44].veinsmobility  acceleration  ETV
vector 7447  IntersectionExampleScenario.node[44].veinsmobility  co2emission  ETV
7300	767663 6853 5951 11080 118.75 175.25 227 0.973 11.648172402475 583.43997568397 2918.3375283659
7299	774516 7325 5951 11080 118.75 175.25 227 -3.8043599128723 2.5 38.511121749878 333.19737421382
7298	781841 7388 5938 11080 118.5 175.25 228 0 15.64999961853 2208.7396099269 29583.823451606
7297	789229 7595 5925 11080 118.25 175.25 229 486.85000610352 486.85000610352 111488.65139771 54278250.613445
7296	796824 7570 5925 11080 118.25 175.25 229 238.4267578125 785.82187652588 118943.38181305 65895324.802569
7314	804394 6055 6336 11328 126.75 177.25 203 0.973 11.90022389248 569.89899028021 3077.0173430601
7313	810449 6213 6336 11328 126.75 177.25 203 -2.2053146362305 2.5000009536743 39.020376205444 331.25701801134
7312	816662 6481 6323 11328 126.5 177.25 204 1.4252259731293 16 2200.142724514 28679.684751008
7311	823143 6799 6310 11328 126.25 177.25 205 238.7841796875 486.85000610352 91616.821960449 41970798.851602
7310	829942 6799 6310 11328 126.25 177.25 205 483.14999389648 785.82187652588 115375.04465485 66786213.264324
vector 7450  IntersectionExampleScenario.node[45].veinsmobility  posx  ETV
vector 7451  IntersectionExampleScenario.node[45].veinsmobility  posy  ETV
vector 7452  IntersectionExampleScenario.node[45].veinsmobility  speed  ETV
7335	836970 6251 6675 12016 132.75 184 206 0.973 11.648172402475 574.28185801418 2931.1693080886
7334	843221 5758 6675 12016 132.75 184 206 -7.4922709465027 4 38.171613693237 481.23647987725
7333	848979 6051 6658 12016 132.5 184 207 0 15.64999961853 2182.438724637 30768.03517872
7332	855030 6926 6641 12016 132.25 184 208 483.14999389648 733.1785736084 108919.84265137 58099535.344497
7331	861956 6907 6641 12016 132.25 184 208 184.17810058594 486.85000610352 86320.420288086 37794348.857768
vector 7453  IntersectionExampleScenario.node[45].veinsmobility  acceleration  ETV
vector 7454  IntersectionExampleScenario.node[45].veinsmobility  co2emission  ETV
7363	869030 5734 7307 12261 141.75 187.25 183 0.973 11.200708441096 517.35409284199 2560.8671143674
7362	874764 5699 7307 12261 141.75 187.25 183 -2.0913848876953 2.5 35.964826583862 257.82529593359
7361	880463 5926 7286 12261 141.5 187.25 184 3.8632979393005 15.02499961853 2203.751642704 28674.47580541
7360	886389 6185 7265 12261 141.25 187.25 185 483.14999389648 732.08764648438 98043.453292847 52991404.991361
7359	892574 6159 7265 12261 141.25 187.25 185 184.17810058594 486.85000610352 74592.981506348 31927159.939865
vector 7457  IntersectionExampleScenario.node[46].veinsmobility  posx  ETV
vector 7458  IntersectionExampleScenario.node[46].veinsmobility  posy  ETV
vector 7459  IntersectionExampleScenario.node[46].veinsmobility  speed  ETV
vector 7460  IntersectionExampleScenario.node[46].veinsmobility  acceleration  ETV
vector 7461  IntersectionExampleScenario.node[46].veinsmobility  co2emission  ETV
vector 7464  IntersectionExampleScenario.node[47].veinsmobility  posx  ETV
vector 7465  IntersectionExampleScenario.node[47].veinsmobility  posy  ETV
vector 7466  IntersectionExampleScenario.node[47].veinsmobility  speed  ETV
vector 7471  IntersectionExampleScenario.node[48].veinsmobility  posx  ETV
vector 7472  IntersectionExampleScenario.node[48].veinsmobility  posy  ETV
vector 7467  IntersectionExampleScenario.node[47].veinsmobility  acceleration  ETV
vector 7468  IntersectionExampleScenario.node[47].veinsmobility  co2emission  ETV
vector 7473  IntersectionExampleScenario.node[48].veinsmobility  speed  ETV
vector 7474  IntersectionExampleScenario.node[48].veinsmobility  acceleration  ETV
vector 7475  IntersectionExampleScenario.node[48].veinsmobility  co2emission  ETV
7342	899921 6733 6984 12753 137.75 194.5 228 0.973 12.099024792222 619.94793618682 3275.4103378635
7341	906654 6258 6984 12753 137.75 194.5 228 -7.2880325317383 4 41.057416915894 494.45668877536
7340	912912 6475 6965 12753 137.5 194.5 229 0 16.27499961853 2203.0739369392 32352.72089211
7339	919387 7691 6946 12753 137.25 194.5 230 239.11395263672 785.82187652588 118455.94423676 65005384.117023
7338	927078 7705 6946 12753 137.25 194.5 230 483.14999389648 483.14999389648 111124.49859619 53689800.8185
7349	934783 6882 6984 12804 137.75 195.25 231 0.973 11.648172402475 610.487674312 3067.5274967185
7348	941665 6292 6984 12804 137.75 195.25 231 -8.8859510421753 4 38.341367721558 512.45266655773
7347	947957 6585 6965 12804 137.5 195.25 232 0 15.64999961853 2198.7679004669 31008.542510433
7346	954542 7778 6946 12804 137.25 195.25 233 184.17810058594 486.85000610352 98130.333740234 43371043.999882
7345	962320 7805 6946 12804 137.25 195.25 233 237.29504394531 486.85000610352 105061.10269165 48464234.836271
7356	970125 7274 7140 12880 139.75 196.5 228 0.973 11.54047740176 598.44889142589 2857.8893978665
7355	977399 7023 7140 12880 139.75 196.5 228 -4.5 2.5000000149012 37.32285118103 431.4407647936
7354	984422 7499 7119 12880 139.5 196.5 229 0 15.5 2286.4570491593 31663.328282068
7353	991921 7664 7098 12880 139.25 196.5 230 166.078125 733.1085357666 102778.32301331 50560685.980761
7352	999585 7713 7098 12880 139.25 196.5 230 486.85000610352 486.85000610352 111975.50140381 54515273.541888
7398	1007298 5968 8047 12910 148.75 197 194 0.973 11.648172402475 560.63345235945 2924.7426791855
7397	1013266 5972 8047 12910 148.75 197 194 -2.1371688842773 2.5 39.699392318726 312.98678937455
7396	1019238 6328 8016 12910 148.5 197 195 1.5202888250351 15.64999961853 2191.7551648617 29354.742943369
7395	1025566 6580 7985 12910 148.25 197 196 486.85000610352 785.82187652588 110397.4973526 63996408.49872
7394	1032146 6589 7985 12910 148.25 197 196 235.44738769531 483.14999389648 86579.416473389 39242964.897109
7370	1038735 7049 7353 13015 142.25 198.75 227 0.973 11.200708441096 587.84142943843 2744.1756744758
7369	1045784 7164 7353 13015 142.25 198.75 227 -3.8429646492004 2.5000019073486 37.32285118103 338.20467855851
7368	1052948 7506 7330 13015 142 198.75 228 0 15.265970230103 2316.0814825408 30741.901700631
7367	1060454 7653 7307 13015 141.75 198.75 229 159.53436279297 733.93118286133 100898.67044067 49257534.197497
7366	1068107 7689 7307 13015 141.75 198.75 229 486.85000610352 486.85000610352 111488.65139771 54278250.613445
7405	1075796 5609 8772 13045 155 199.25 178 0.973 11.450879080643 550.13418737887 3074.2051766601
7404	1081405 5424 8772 13045 155 199.25 178 -3.7676773071289 2.5000019073486 36.98334312439 330.29537437907
7403	1086829 5754 8743 13045 154.75 199.25 179 5.6500000953674 15.375 2210.481762886 28955.540029061
7402	1092583 6063 8714 13045 154.5 199.25 180 482.98153686523 785.82187652588 102661.01888275 60362851.961271
7401	1098646 6067 8714 13045 154.5 199.25 180 483.14999389648 734.96621704102 95670.925231934 51890788.136947
7377	1104713 7362 7543 13210 144.25 202 232 0.973 11.36141391502 609.40302389014 2911.7271971205
7376	1112075 7227 7543 13210 144.25 202 232 -4.5 2.5 37.15309715271 434.05950059623
7375	1119302 7512 7516 13210 144 202 233 0 15.25 2309.2673391625 29747.803915012
7374	1126814 7839 7491 13210 143.75 202 234 153.75622558594 483.17919921875 93654.888153076 39894900.540005
7373	1134653 7862 7491 13210 143.75 202 234 486.85000610352 733.86030578613 122311.24861145 65008576.944421
7419	1142515 5227 9507 13270 161.5 203 167 0.973 12.126706495377 523.77671416395 2850.990977794
7418	1147742 5766 9507 13270 161.5 203 167 -3.2566337585449 2.5 42.652868270874 239.21098976535
7417	1153508 5643 9479 13270 161.25 203 168 5.6500000953674 16.313217163086 2202.4299397469 30259.632195951
7416	1159151 5704 9450 13270 161 203 169 483.13388061523 785.82187652588 95971.526329041 56314541.795953
7415	1164855 5708 9450 13270 161 203 169 483.14999389648 731.47834777832 90188.194015503 49095587.436101
7426	1170563 5278 9970 13420 165.75 205.5 160 0.973 11.200708441096 464.74608443582 2369.0826998107
7425	1175841 5028 9970 13420 165.75 205.5 160 -3.6052474975586 2.5 35.455564498901 189.71851869292
7424	1180869 5249 9941 13420 165.5 205.5 161 5.6500000953674 15.02499961853 2221.0526771545 31136.485783006
7423	1186118 5461 9912 13420 165.25 205.5 162 184.17810058594 734.59503173828 72950.961837769 37166681.107639
7422	1191579 5505 9912 13420 165.25 205.5 162 486.85000610352 486.85000610352 78869.70098877 38397714.407765
7384	1197084 7574 7570 13574 144.5 208.25 256 0.973 11.648172402475 634.46881000455 3036.3962997356
7383	1204658 6591 7570 13574 144.5 208.25 256 -44.457302093506 4 38.511121749878 2293.7571591349
7382	1211249 7046 7543 13574 144.25 208.25 257 0 15.64999961853 2215.9186668396 32109.826193159
7381	1218295 8682 7516 13574 144 208.25 258 486.85000610352 486.85000610352 125607.30157471 61151915.538292
7380	1226977 8668 7516 13574 144 208.25 258 236.02325439453 785.82187652588 132103.34384918 71820116.338728
7391	1235645 7830 7898 13639 147.5 209.5 249 0.973 11.90022389248 635.30381396756 3128.525427133
7390	1243475 7908 7898 13639 147.5 209.5 249 -4.5 2.5 39.020376205444 438.29583142644
7389	1251383 7910 7869 13639 147.25 209.5 250 0 16 2263.2480932055 31696.408614725
7388	1259293 8425 7840 13639 147 209.5 251 235.74145507812 486.85000610352 113815.38317871 52732418.070829
7387	1267718 8420 7840 13639 147 209.5 251 483.13442993164 798.59687805176 138524.4260788 78700114.155689
vector 7478  IntersectionExampleScenario.node[49].veinsmobility  posx  ETV
vector 7479  IntersectionExampleScenario.node[49].veinsmobility  posy  ETV
vector 7480  IntersectionExampleScenario.node[49].veinsmobility  speed  ETV
vector 7481  IntersectionExampleScenario.node[49].veinsmobility  acceleration  ETV
vector 7482  IntersectionExampleScenario.node[49].veinsmobility  co2emission  ETV
vector 7485  IntersectionExampleScenario.node[50].veinsmobility  posx  ETV
vector 7486  IntersectionExampleScenario.node[50].veinsmobility  posy  ETV
vector 7487  IntersectionExampleScenario.node[50].veinsmobility  speed  ETV
vector 7488  IntersectionExampleScenario.node[50].veinsmobility  acceleration  ETV
vector 7489  IntersectionExampleScenario.node[50].veinsmobility  co2emission  ETV
7412	1276930 6560 9200 13795 158.75 212 214 0.973 11.648172402475 575.53398446509 2929.9489448647
7411	1283490 6756 9200 13795 158.75 212 214 -3.877316236496 2.5 38.850629806519 338.45625703952
7410	1290246 6967 9171 13795 158.5 212 215 0 15.64999961853 2192.9491737522 28821.889655508
7409	1297213 7307 9142 13795 158.25 212 216 486.85000610352 734.92736816406 113398.75361633 60577447.892046
7408	1304520 7303 9142 13795 158.25 212 216 486.85000610352 785.82187652588 120959.9103775 69589240.973845
vector 7492  IntersectionExampleScenario.node[51].veinsmobility  posx  ETV
vector 7493  IntersectionExampleScenario.node[51].veinsmobility  posy  ETV
vector 7499  IntersectionExampleScenario.node[52].veinsmobility  posx  ETV
vector 7500  IntersectionExampleScenario.node[52].veinsmobility  posy  ETV
vector 7494  IntersectionExampleScenario.node[51].veinsmobility  speed  ETV
vector 7495  IntersectionExampleScenario.node[51].veinsmobility  acceleration  ETV
vector 7496  IntersectionExampleScenario.node[51].veinsmobility  co2emission  ETV
vector 7501  IntersectionExampleScenario.node[52].veinsmobility  speed  ETV
vector 7502  IntersectionExampleScenario.node[52].veinsmobility  acceleration  ETV
vector 7503  IntersectionExampleScenario.node[52].veinsmobility  co2emission  ETV
vector 7506  IntersectionExampleScenario.node[53].veinsmobility  posx  ETV
vector 7507  IntersectionExampleScenario.node[53].veinsmobility  posy  ETV
vector 7508  IntersectionExampleScenario.node[53].veinsmobility  speed  ETV
vector 7509  IntersectionExampleScenario.node[53].veinsmobility  acceleration  ETV
vector 7510  IntersectionExampleScenario.node[53].veinsmobility  co2emission  ETV
vector 7513  IntersectionExampleScenario.node[54].veinsmobility  posx  ETV
vector 7514  IntersectionExampleScenario.node[54].veinsmobility  posy  ETV
vector 7515  IntersectionExampleScenario.node[54].veinsmobility  speed  ETV
vector 7516  IntersectionExampleScenario.node[54].veinsmobility  acceleration  ETV
vector 7517  IntersectionExampleScenario.node[54].veinsmobility  co2emission  ETV
vector 7520  IntersectionExampleScenario.node[55].veinsmobility  posx  ETV
vector 7521  IntersectionExampleScenario.node[55].veinsmobility  posy  ETV
vector 7522  IntersectionExampleScenario.node[55].veinsmobility  speed  ETV
vector 7523  IntersectionExampleScenario.node[55].veinsmobility  acceleration  ETV
vector 7524  IntersectionExampleScenario.node[55].veinsmobility  co2emission  ETV
7454	1313803 5176 12037 14649 184.25 223.25 157 0.973 11.810082123732 515.43055861261 2886.8724378541
7453	1318979 4677 12037 14649 184.25 223.25 157 -3.4797992706299 2.5 39.869146347046 288.3537892539
7452	1323656 5059 12016 14649 184 223.25 158 5.6500000953674 15.875 2188.3650727272 31769.767524
7451	1328715 5369 11995 14649 183.75 223.25 159 235.78228759766 483.14999389648 68758.902191162 30650667.211468
7450	1334084 5383 11995 14649 183.75 223.25 159 184.17810058594 483.14999389648 63186.488616943 26835570.35997
vector 7527  IntersectionExampleScenario.node[56].veinsmobility  posx  ETV
vector 7528  IntersectionExampleScenario.node[56].veinsmobility  posy  ETV
vector 7529  IntersectionExampleScenario.node[56].veinsmobility  speed  ETV
vector 7530  IntersectionExampleScenario.node[56].veinsmobility  acceleration  ETV
vector 7531  IntersectionExampleScenario.node[56].veinsmobility  co2emission  ETV
vector 7534  IntersectionExampleScenario.node[57].veinsmobility  posx  ETV
vector 7535  IntersectionExampleScenario.node[57].veinsmobility  posy  ETV
vector 7536  IntersectionExampleScenario.node[57].veinsmobility  speed  ETV
vector 7541  IntersectionExampleScenario.node[58].veinsmobility  posx  ETV
vector 7542  IntersectionExampleScenario.node[58].veinsmobility  posy  ETV
vector 7537  IntersectionExampleScenario.node[57].veinsmobility  acceleration  ETV
vector 7538  IntersectionExampleScenario.node[57].veinsmobility  co2emission  ETV
vector 7543  IntersectionExampleScenario.node[58].veinsmobility  speed  ETV
vector 7544  IntersectionExampleScenario.node[58].veinsmobility  acceleration  ETV
vector 7545  IntersectionExampleScenario.node[58].veinsmobility  co2emission  ETV
vector 7548  IntersectionExampleScenario.node[59].veinsmobility  posx  ETV
vector 7549  IntersectionExampleScenario.node[59].veinsmobility  posy  ETV
vector 7550  IntersectionExampleScenario.node[59].veinsmobility  speed  ETV
vector 7551  IntersectionExampleScenario.node[59].veinsmobility  acceleration  ETV
vector 7552  IntersectionExampleScenario.node[59].veinsmobility  co2emission  ETV
vector 7555  IntersectionExampleScenario.node[60].veinsmobility  posx  ETV
vector 7556  IntersectionExampleScenario.node[60].veinsmobility  posy  ETV
7433	1341203 7526 10288 15355 168.5 230.5 249 0.973 11.450879080643 618.0535810355 2874.0400953828
7432	1348729 6492 10288 15355 168.5 230.5 249 -19.25309753418 4 37.15309715271 803.38490429803
7431	1355221 7095 10259 15355 168.25 230.5 250 0 15.375 2258.007601738 31746.977837597
7430	1362316 8507 10230 15355 168 230.5 251 169.95465087891 486.85000610352 105295.48809814 46540574.034032
7429	1370823 8527 10230 15355 168 230.5 251 237.33026123047 486.85000610352 113672.90875244 52609218.369636
vector 7557  IntersectionExampleScenario.node[60].veinsmobility  speed  ETV
vector 7558  IntersectionExampleScenario.node[60].veinsmobility  acceleration  ETV
vector 7559  IntersectionExampleScenario.node[60].veinsmobility  co2emission  ETV
7440	1379594 7542 10741 15405 172.5 231 235 0.973 11.990504229548 626.74144075041 3070.099050091
7439	1387136 7564 10741 15405 172.5 231 235 -4.5 2.5 39.869146347046 449.06162479698
7438	1394700 7626 10712 15405 172.25 231 236 0 16.125 2271.8745198715 32492.927069685
7437	1402326 8037 10683 15405 172 231 237 170.86639404297 734.0384979248 106430.47724915 52210058.298225
7436	1410363 8056 10683 15405 172 231 237 486.85000610352 486.85000610352 115383.45144653 56174434.040989
7447	1418419 7128 10832 15430 173.25 231.25 233 0.973 11.00486315618 574.73776275711 2583.9983843371
7446	1425547 6788 10832 15430 173.25 231.25 233 -8.7587003707886 4 34.606801986694 474.4891815964
7445	1432335 6847 10801 15430 173 231.25 234 0 14.75 2204.6625726223 29591.473696488
7444	1439182 7976 10770 15430 172.75 231.25 235 483.14999389648 785.82187652588 129336.69366455 73275878.704656
7443	1447158 7978 10770 15430 172.75 231.25 235 483.14999389648 734.46961975098 122555.45591736 65080542.44368
vector 7562  IntersectionExampleScenario.node[61].veinsmobility  posx  ETV
vector 7563  IntersectionExampleScenario.node[61].veinsmobility  posy  ETV
vector 7564  IntersectionExampleScenario.node[61].veinsmobility  speed  ETV
vector 7565  IntersectionExampleScenario.node[61].veinsmobility  acceleration  ETV
vector 7566  IntersectionExampleScenario.node[61].veinsmobility  co2emission  ETV
vector 7569  IntersectionExampleScenario.node[62].veinsmobility  posx  ETV
vector 7570  IntersectionExampleScenario.node[62].veinsmobility  posy  ETV
vector 7571  IntersectionExampleScenario.node[62].veinsmobility  speed  ETV
vector 7572  IntersectionExampleScenario.node[62].veinsmobility  acceleration  ETV
vector 7573  IntersectionExampleScenario.node[62].veinsmobility  co2emission  ETV
7475	1455928 6001 12648 16596 193 242.25 198 0.973 12.553400930962 598.74678179013 3525.976054681
7474	1461929 5643 12648 16596 193 242.25 198 -7.6021375656128 4 42.924703598022 521.82785484567
7473	1467572 5792 12629 16596 192.75 242.25 199 0 16.89999961853 2063.9174358845 30759.534418594
7472	1473364 6791 12610 16596 192.5 242.25 200 238.23779296875 486.85000610352 89607.425567627 41129542.705438
7471	1480155 6789 12610 16596 192.5 242.25 200 483.14999389648 752.70781707764 108485.39840698 60270851.186924
7461	1486944 6939 12488 16812 190.75 244.25 215 0.973 11.54047740176 616.63289049928 3133.4788312961
7460	1493883 6924 12488 16812 190.75 244.25 215 -4.5 2.5000000670552 38.680875778198 539.75211680234
7459	1500807 7185 12471 16812 190.5 244.25 216 0 15.774634361267 2216.410516439 30322.472393382
7458	1507992 7379 12454 16812 190.25 244.25 217 486.85000610352 486.85000610352 105646.45132446 51433975.472129
7457	1515371 7360 12454 16812 190.25 244.25 217 236.48040771484 785.82187652588 113922.60268402 64314401.05062
7468	1522731 6871 12610 17013 192.5 246.25 216 0.973 12.26218747632 614.95495014691 3225.1624829529
7467	1529602 6960 12610 17013 192.5 246.25 216 -4.5 2.5000009536743 41.396924972534 426.95893666942
7466	1536562 7047 12592 17013 192.25 246.25 217 0 16.5 2255.5751245506 31192.536594644
7465	1543609 7390 12573 17013 192 246.25 218 486.85000610352 731.46951293945 113841.39508057 60428123.01239
7464	1550999 7400 12573 17013 192 246.25 218 486.85000610352 805.05782318115 123918.05768585 72763670.815595
vector 7576  IntersectionExampleScenario.node[63].veinsmobility  posx  ETV
vector 7577  IntersectionExampleScenario.node[63].veinsmobility  posy  ETV
vector 7578  IntersectionExampleScenario.node[63].veinsmobility  speed  ETV
vector 7579  IntersectionExampleScenario.node[63].veinsmobility  acceleration  ETV
vector 7580  IntersectionExampleScenario.node[63].veinsmobility  co2emission  ETV
vector 7583  IntersectionExampleScenario.node[64].veinsmobility  posx  ETV
vector 7584  IntersectionExampleScenario.node[64].veinsmobility  posy  ETV
vector 7585  IntersectionExampleScenario.node[64].veinsmobility  speed  ETV
vector 7586  IntersectionExampleScenario.node[64].veinsmobility  acceleration  ETV
vector 7587  IntersectionExampleScenario.node[64].veinsmobility  co2emission  ETV
7503	1559191 5136 13907 17637 213.5 252.75 158 0.973 12.099024792222 568.16518229704 3370.7907425569
7502	1564327 4797 13907 17637 213.5 252.75 158 -3.5863523483276 2.5 42.754949569702 413.33268321338
7501	1569124 5235 13886 17637 213.25 252.75 159 2.4561147689819 16.678102493286 2180.2097957134 32512.764209386
7500	1574359 5418 13865 17637 213 252.75 160 483.14999389648 731.45262145996 85071.084579468 46137437.239582
7499	1579777 5410 13865 17637 213 252.75 160 184.17810058594 486.85000610352 64121.710723877 27448327.668434
vector 7590  IntersectionExampleScenario.node[65].veinsmobility  posx  ETV
vector 7591  IntersectionExampleScenario.node[65].veinsmobility  posy  ETV
vector 7592  IntersectionExampleScenario.node[65].veinsmobility  speed  ETV
vector 7593  IntersectionExampleScenario.node[65].veinsmobility  acceleration  ETV
vector 7594  IntersectionExampleScenario.node[65].veinsmobility  co2emission  ETV
vector 7597  IntersectionExampleScenario.node[66].veinsmobility  posx  ETV
vector 7598  IntersectionExampleScenario.node[66].veinsmobility  posy  ETV
vector 7599  IntersectionExampleScenario.node[66].veinsmobility  speed  ETV
vector 7600  IntersectionExampleScenario.node[66].veinsmobility  acceleration  ETV
vector 7601  IntersectionExampleScenario.node[66].veinsmobility  co2emission  ETV
vector 7604  IntersectionExampleScenario.node[67].veinsmobility  posx  ETV
vector 7605  IntersectionExampleScenario.node[67].veinsmobility  posy  ETV
vector 7606  IntersectionExampleScenario.node[67].veinsmobility  speed  ETV
vector 7607  IntersectionExampleScenario.node[67].veinsmobility  acceleration  ETV
vector 7608  IntersectionExampleScenario.node[67].veinsmobility  co2emission  ETV
7524	1586375 5441 14418 18328 220.5 261.5 165 0.973 11.00486315618 468.67901951087 2243.6170264726
7523	1591816 5023 14418 18328 220.5 261.5 165 -3.4371032714844 2.5 34.437047958374 207.40763052562
7522	1596839 5364 14397 18328 220.25 261.5 166 5.6500000953674 14.75 2208.3318443298 30048.54358187
7521	1602203 5669 14376 18328 220 261.5 167 483.14999389648 733.6499786377 89670.15826416 49166888.293725
7520	1607872 5658 14376 18328 220 261.5 167 184.17810058594 486.85000610352 66556.534606934 28364790.465802
7496	1613530 6909 13886 18713 213.25 266.25 213 0.973 11.54047740176 591.11309483474 2809.8480318537
7495	1620439 6820 13886 18713 213.25 266.25 213 -4.5 2.5000000745058 38.680875778198 432.59600277766
7494	1627259 7121 13865 18713 213 266.25 214 0 15.5 2267.9168890147 31886.598202398
7493	1634380 7284 13846 18713 212.75 266.25 215 236.40240478516 798.59687805176 112343.27205658 63159181.71966
7492	1641664 7310 13846 18713 212.75 266.25 215 483.14999389648 483.14999389648 103877.24868774 50188292.069467
7482	1648974 6907 13682 18713 210.25 266.25 225 0.973 10.916047529558 563.27825912519 2540.5287708969
7481	1655881 6249 13682 18713 210.25 266.25 225 -7.1268091201782 4 34.437047958374 443.47202354607
7480	1662130 6674 13667 18713 210 266.25 226 0 14.625 2182.5622303486 29045.205638856
7479	1668804 7709 13652 18713 209.75 266.25 227 486.63604736328 785.82187652588 125637.5743103 71572164.788461
7478	1676513 7649 13652 18713 209.75 266.25 227 235.35296630859 483.14999389648 100859.09197998 45925397.825649
7489	1684162 6824 13761 18782 211.5 267.25 224 0.90753377507377 12.553400930962 623.87628749267 3301.9048481445
7488	1690986 6850 13761 18782 211.5 267.25 224 -8.2027835845947 4 39.936742782593 500.52257963723
7487	1697836 6870 13744 18782 211.25 267.25 225 0 16.89999961853 2204.0879535675 31506.626234939
7486	1704706 7647 13727 18782 211 267.25 226 184.17810058594 487.01956176758 95450.693450928 42308677.148215
7485	1712353 7675 13727 18782 211 267.25 226 235.65710449219 486.85000610352 101144.61560059 46411365.59907
7510	1720028 6455 14105 18816 216.25 267.75 207 0.973 11.648172402475 564.07676111649 2879.6845895067
7509	1726483 6477 14105 18816 216.25 267.75 207 -3.6850161552429 2.5 38.171613693237 361.53966022933
7508	1732960 6616 14088 18816 216 267.75 208 0 15.64999961853 2186.3640601486 29403.455531632
7507	1739576 7073 14071 18816 215.75 267.75 209 184.17810058594 483.16287231445 85948.687469482 37229627.92273
7506	1746649 7102 14071 18816 215.75 267.75 209 486.85000610352 733.64961242676 110000.41215515 58921589.915991
vector 7611  IntersectionExampleScenario.node[68].veinsmobility  posx  ETV
vector 7612  IntersectionExampleScenario.node[68].veinsmobility  posy  ETV
7517	1753903 6288 14262 18884 218.5 268.75 202 0.973 12.314244977945 597.89416977396 3183.4903891087
7516	1760191 6866 14262 18884 218.5 268.75 202 -3.8324990272522 2.5 43.686613082886 365.46335688216
7515	1767057 6878 14243 18884 218.25 268.75 203 0 16.571653366089 2200.9573645629 29959.542448813
7514	1773935 6918 14224 18884 218 268.75 204 483.14999389648 785.82187652588 114202.86092377 65785234.912515
7513	1780853 6924 14224 18884 218 268.75 204 483.14999389648 731.37658691406 106659.96707153 56782834.273518
vector 7613  IntersectionExampleScenario.node[68].veinsmobility  speed  ETV
vector 7614  IntersectionExampleScenario.node[68].veinsmobility  acceleration  ETV
vector 7615  IntersectionExampleScenario.node[68].veinsmobility  co2emission  ETV
vector 7618  IntersectionExampleScenario.node[69].veinsmobility  posx  ETV
vector 7619  IntersectionExampleScenario.node[69].veinsmobility  posy  ETV
7538	1788173 5775 14925 19074 226.25 271.25 181 0.973 11.200708441096 534.25419175129 2647.0353821781
7537	1793948 5860 14925 19074 226.25 271.25 181 -4.5 2.5000019073486 35.964826583862 318.93481836169
7536	1799808 6098 14900 19074 226 271.25 182 5.0094513893127 15.02499961853 2186.8271179199 28244.96139217
7535	1805906 6189 14875 19074 225.75 271.25 183 184.17810058594 483.14999389648 73380.726715088 31229995.336862
7534	1812095 6212 14875 19074 225.75 271.25 183 486.85000610352 734.18778991699 97677.647323608 53144279.211836
vector 7625  IntersectionExampleScenario.node[70].veinsmobility  posx  ETV
vector 7626  IntersectionExampleScenario.node[70].veinsmobility  posy  ETV
vector 7620  IntersectionExampleScenario.node[69].veinsmobility  speed  ETV
vector 7621  IntersectionExampleScenario.node[69].veinsmobility  acceleration  ETV
vector 7622  IntersectionExampleScenario.node[69].veinsmobility  co2emission  ETV
vector 7627  IntersectionExampleScenario.node[70].veinsmobility  speed  ETV
vector 7628  IntersectionExampleScenario.node[70].veinsmobility  acceleration  ETV
vector 7629  IntersectionExampleScenario.node[70].veinsmobility  co2emission  ETV
7531	1818947 6790 14737 19698 224.25 279 220 0.973 11.200708441096 569.17412624929 2667.460398924
7530	1825737 6071 14737 19698 224.25 279 220 -8.6476802825928 4 35.795072555542 472.97505521195
7529	1831808 6532 14714 19698 224 279 221 0 15.02499961853 2185.8129124641 29680.115937667
7528	1838340 7487 14691 19698 223.75 279 222 486.85000610352 735.56745910645 116770.17932129 62517931.381778
7527	1845827 7540 14691 19698 223.75 279 222 486.63604736328 785.82187652588 122939.0251236 70085950.209898
7552	1853367 6627 15231 19834 229.25 281 208 0.973 11.200708441096 568.5409438649 2713.5981789073
7551	1859994 6569 15231 19834 229.25 281 208 -4.4402809143066 2.5 38.341367721558 373.70210378959
7550	1866563 6831 15206 19834 229 281 209 0 15.251132011414 2182.6633144449 29852.27354542
7549	1873394 7126 15181 19834 228.75 281 210 486.85000610352 733.10034179688 110436.85899353 59097451.342111
7548	1880520 7120 15181 19834 228.75 281 210 486.74053955078 785.82187652588 117124.88564301 67226526.018002
7566	1887640 5909 15759 19902 234.5 282 191 0.973 11.648172402475 594.515647984 3145.2520285748
7565	1893549 6179 15759 19902 234.5 282 191 -3.2591400146484 2.5 44.317205429077 346.23473047385
7564	1899728 6214 15732 19902 234.25 282 192 2.0409114360809 16.835029602051 2177.1546983719 29847.536910258
7563	1905942 6554 15705 19902 234 282 193 486.85000610352 730.89324951172 101444.63574219 54235661.271108
7562	1912496 6554 15705 19902 234 282 193 486.85000610352 785.82187652588 108980.74054718 63298979.612194
vector 7632  IntersectionExampleScenario.node[71].veinsmobility  posx  ETV
vector 7633  IntersectionExampleScenario.node[71].veinsmobility  posy  ETV
vector 7634  IntersectionExampleScenario.node[71].veinsmobility  speed  ETV
vector 7635  IntersectionExampleScenario.node[71].veinsmobility  acceleration  ETV
vector 7636  IntersectionExampleScenario.node[71].veinsmobility  co2emission  ETV
7545	1919446 7544 14979 20280 226.75 289.25 251 0.973 11.450879080643 627.44258902432 2876.1119560623
7544	1926990 6808 14979 20280 226.75 289.25 251 -32.618286132812 4 38.511121749878 1434.6724545172
7543	1933798 7050 14952 20280 226.5 289.25 252 0 15.504091262817 2211.4878234863 31843.072341816
7542	1940848 8603 14925 20280 226.25 289.25 253 483.14999389648 483.14999389648 122236.94845581 59058780.90035
7541	1949451 8563 14925 20280 226.25 289.25 253 184.17810058594 733.9766998291 115708.54920959 57115047.736989
7559	1958014 7748 15405 20361 231 291.5 243 0.973 11.200708441096 603.62260403777 2753.3324324658
7558	1965762 7989 15405 20361 231 291.5 243 -3.9404227733612 2.5 37.32285118103 351.03092522862
7557	1973751 8166 15380 20361 230.75 291.5 244 0 15.174279212952 2232.2836486828 30093.952306194
7556	1981917 8330 15355 20361 230.5 291.5 245 483.14999389648 483.14999389648 118371.74850464 57191309.567532
7555	1990247 8304 15355 20361 230.5 291.5 245 179.78271484375 733.23081970215 110691.34248352 54320093.04572
7587	1998551 5365 17532 20433 251.5 293.5 169 0.973 12.099024792222 561.38106946289 3355.8125469966
7586	2003916 5148 17532 20433 251.5 293.5 169 -2.933765411377 2.5 40.038900375366 352.06267881774
7585	2009064 5460 17511 20433 251.25 293.5 170 5.6500000953674 16.27499961853 2175.9481577873 29875.376721091
7584	2014524 5808 17489 20433 251 293.5 171 239.02062988281 483.14999389648 74780.18572998 33613678.452727
7583	2020332 5791 17489 20433 251 293.5 171 184.17810058594 483.14999389648 68238.725494385 28957445.974796
7573	2026123 7366 16163 20643 238.25 300 248 0.973 12.034311498323 632.85954562874 3277.3453082442
7572	2033489 6809 16163 20643 238.25 300 248 -28.446815490723 4 39.869146347046 1189.7137454457
7571	2040298 6900 16136 20643 238 300 249 0 16.185585021973 2184.4267206192 31651.378987107
7570	2047198 8480 16109 20643 237.75 300 250 184.17810058594 483.36395263672 106096.1270752 47070283.333376
7569	2055678 8429 16109 20643 237.75 300 250 486.85000610352 734.37205505371 129787.26185608 68445539.652776
7594	2064107 5626 17906 20643 256.5 300 175 0.973 11.810082123732 553.63080138711 3025.7267034695
7593	2069733 5271 17906 20643 256.5 300 175 -8.013355255127 4 39.529638290405 489.37670057805
7592	2075004 5513 17887 20643 256.25 300 176 0 15.875 2178.4170484543 31098.377513482
7591	2080517 6008 17868 20643 256 300 177 486.63604736328 785.82187652588 100089.47428131 58409216.610867
7590	2086525 5946 17868 20643 256 300 177 236.61950683594 483.14999389648 77466.591278076 34856673.793555
7608	2092471 5266 18236 20664 260.5 300.75 162 0.973 11.990504229548 523.78484062429 2947.5186842729
7607	2097737 5080 18236 20664 260.5 300.75 162 -4.5 2.5 39.529638290405 318.97868932607
7606	2102817 5295 18213 20664 260.25 300.75 163 5.5527696609497 16.125 2243.6922235489 32264.414125925
7605	2108112 5551 18190 20664 260 300.75 164 236.34313964844 792.02188110352 86026.000801086 49355201.667097
7604	2113663 5576 18190 20664 260 300.75 164 483.14999389648 483.14999389648 79236.598999023 38283162.322756
7580	2119239 6806 17167 20706 247.75 302.25 219 0.973 11.648172402475 576.21359966531 2860.6121833528
7579	2126045 7275 17167 20706 247.75 302.25 219 -3.7288765907288 2.5 38.341367721558 327.19570220313
7578	2133320 7446 17140 20706 247.5 302.25 220 0 15.64999961853 2205.6420928221 29106.589640133
7577	2140766 7482 17113 20706 247.25 302.25 221 184.17810058594 486.89889526367 91480.097625732 39801637.006909
7576	2148248 7511 17113 20706 247.25 302.25 221 236.90155029297 486.85000610352 99177.874298096 45586964.585109
7601	2155759 5608 18043 20713 258.25 302.5 178 0.973 11.990504229548 543.43918078342 3018.6621349825
7600	2161367 5516 18043 20713 258.25 302.5 178 -2.1380386352539 2.5000019073486 39.869146347046 293.24294877015
7599	2166883 5819 18022 20713 258 302.5 179 3.5943055152893 16.125 2214.3687491417 30158.34279822
7598	2172702 6087 18001 20713 257.75 302.5 180 184.17810058594 732.24215698242 80098.634292603 39712646.873109
7597	2178789 6120 18001 20713 257.75 302.5 180 486.85000610352 486.85000610352 87633.001098633 42664127.119739
vector 7639  IntersectionExampleScenario.node[72].veinsmobility  posx  ETV
vector 7640  IntersectionExampleScenario.node[72].veinsmobility  posy  ETV
vector 7641  IntersectionExampleScenario.node[72].veinsmobility  speed  ETV
vector 7642  IntersectionExampleScenario.node[72].veinsmobility  acceleration  ETV
vector 7643  IntersectionExampleScenario.node[72].veinsmobility  co2emission  ETV
7622	2185305 5375 19118 20991 271.75 313 166 0.973 11.648172402475 537.24638502015 2981.3653017332
7621	2190680 5245 19118 20991 271.75 313 166 -3.4884157180786 2.5000009536743 37.832105636597 368.63232283483
7620	2195925 5647 19095 20991 271.5 313 167 3.2205274105072 15.64999961853 2219.6046552658 31308.838795875
7619	2201572 5712 19074 20991 271.25 313 168 486.85000610352 486.85000610352 81790.801025391 39819851.978423
7618	2207284 5698 19074 20991 271.25 313 168 235.08508300781 785.82187652588 87233.438667297 49499364.978898
vector 7646  IntersectionExampleScenario.node[73].veinsmobility  posx  ETV
vector 7647  IntersectionExampleScenario.node[73].veinsmobility  posy  ETV
vector 7648  IntersectionExampleScenario.node[73].veinsmobility  speed  ETV
vector 7649  IntersectionExampleScenario.node[73].veinsmobility  acceleration  ETV
vector 7650  IntersectionExampleScenario.node[73].veinsmobility  co2emission  ETV
vector 7653  IntersectionExampleScenario.node[74].veinsmobility  posx  ETV
vector 7654  IntersectionExampleScenario.node[74].veinsmobility  posy  ETV
vector 7655  IntersectionExampleScenario.node[74].veinsmobility  speed  ETV
vector 7656  IntersectionExampleScenario.node[74].veinsmobility  acceleration  ETV
vector 7657  IntersectionExampleScenario.node[74].veinsmobility  co2emission  ETV
vector 7660  IntersectionExampleScenario.node[75].veinsmobility  posx  ETV
vector 7661  IntersectionExampleScenario.node[75].veinsmobility  posy  ETV
vector 7662  IntersectionExampleScenario.node[75].veinsmobility  speed  ETV
vector 7663  IntersectionExampleScenario.node[75].veinsmobility  acceleration  ETV
vector 7664  IntersectionExampleScenario.node[75].veinsmobility  co2emission  ETV
7615	2214170 6818 18922 21258 269.25 324.5 222 0.973 11.200708441096 570.60213239763 2680.1262338564
7614	2220988 6208 18922 21258 269.25 324.5 222 -8.6544361114502 4 35.795072555542 474.85014899822
7613	2227196 6572 18903 21258 269 324.5 223 0 15.02499961853 2177.8262689114 29693.306448537
7612	2233768 7613 18884 21258 268.75 324.5 224 483.14999389648 732.46864318848 116925.50668335 62143680.660349
7611	2241381 7596 18884 21258 268.75 324.5 224 184.17810058594 486.85000610352 93573.623840332 41131833.328017
7629	2248977 6628 19141 21267 272 324.75 212 0.973 11.990504229548 609.12084718666 3082.2319120671
7628	2255605 6309 19141 21267 272 324.75 212 -4.5 2.5 41.057416915894 499.21898610296
7627	2261914 6477 19118 21267 271.75 324.75 213 0 16.125 2275.831427292 33133.970891149
7626	2268391 7277 19095 21267 271.5 324.75 214 483.14999389648 483.14999389648 103394.09869385 49954858.152865
7625	2275668 7236 19095 21267 271.5 324.75 214 169.95465087891 733.75752258301 95636.775115967 47118394.548923
vector 7667  IntersectionExampleScenario.node[76].veinsmobility  posx  ETV
vector 7668  IntersectionExampleScenario.node[76].veinsmobility  posy  ETV
vector 7669  IntersectionExampleScenario.node[76].veinsmobility  speed  ETV
vector 7670  IntersectionExampleScenario.node[76].veinsmobility  acceleration  ETV
vector 7671  IntersectionExampleScenario.node[76].veinsmobility  co2emission  ETV
vector 7674  IntersectionExampleScenario.node[77].veinsmobility  posx  ETV
vector 7675  IntersectionExampleScenario.node[77].veinsmobility  posy  ETV
vector 7676  IntersectionExampleScenario.node[77].veinsmobility  speed  ETV
vector 7677  IntersectionExampleScenario.node[77].veinsmobility  acceleration  ETV
vector 7678  IntersectionExampleScenario.node[77].veinsmobility  co2emission  ETV
7636	2283696 6500 20008 21690 283.5 335.75 210 0.973 11.36141391502 561.83076973841 2760.6876278114
7635	2290196 6122 20008 21690 283.5 335.75 210 -8.6810245513916 4 36.134572982788 473.1830623113
7634	2296318 6302 19989 21690 283.25 335.75 211 0 15.25 2178.0970487595 29705.218555888
7633	2302620 7194 19970 21690 283 335.75 212 486.63604736328 785.82187652588 117929.35630035 67569447.332028
7632	2309814 7143 19970 21690 283 335.75 212 236.32275390625 483.14999389648 93923.679443359 42667624.306611
7643	2316957 5031 20836 22075 306.75 344.5 152 0.973 12.099024792222 509.65437851529 2931.6333282533
7642	2321988 4570 20836 22075 306.75 344.5 152 -3.4177932739258 2.5 41.227170944214 260.25388199205
7641	2326558 4897 20827 22075 306.5 344.5 153 5.6500000953674 16.27499961853 2208.2856054306 32998.513875184
7640	2331455 5211 20818 22075 306.25 344.5 154 184.17810058594 486.87908935547 61244.765014648 26091993.249851
7639	2336666 5228 20818 22075 306.25 344.5 154 236.80914306641 486.85000610352 66920.826568604 29998911.00053
vector 7681  IntersectionExampleScenario.node[78].veinsmobility  posx  ETV
vector 7682  IntersectionExampleScenario.node[78].veinsmobility  posy  ETV
vector 7683  IntersectionExampleScenario.node[78].veinsmobility  speed  ETV
vector 7684  IntersectionExampleScenario.node[78].veinsmobility  acceleration  ETV
vector 7685  IntersectionExampleScenario.node[78].veinsmobility  co2emission  ETV
vector 7688  IntersectionExampleScenario.node[79].veinsmobility  posx  ETV
vector 7689  IntersectionExampleScenario.node[79].veinsmobility  posy  ETV
vector 7695  IntersectionExampleScenario.node[80].veinsmobility  posx  ETV
vector 7696  IntersectionExampleScenario.node[80].veinsmobility  posy  ETV
vector 7690  IntersectionExampleScenario.node[79].veinsmobility  speed  ETV
vector 7697  IntersectionExampleScenario.node[80].veinsmobility  speed  ETV
vector 7691  IntersectionExampleScenario.node[79].veinsmobility  acceleration  ETV
vector 7692  IntersectionExampleScenario.node[79].veinsmobility  co2emission  ETV
vector 7698  IntersectionExampleScenario.node[80].veinsmobility  acceleration  ETV
vector 7699  IntersectionExampleScenario.node[80].veinsmobility  co2emission  ETV
vector 7702  IntersectionExampleScenario.node[81].veinsmobility  posx  ETV
vector 7703  IntersectionExampleScenario.node[81].veinsmobility  posy  ETV
vector 7704  IntersectionExampleScenario.node[81].veinsmobility  speed  ETV
vector 7705  IntersectionExampleScenario.node[81].veinsmobility  acceleration  ETV
vector 7706  IntersectionExampleScenario.node[81].veinsmobility  co2emission  ETV
7650	2343478 6078 21121 23340 319.75 369 198 0.87724236611116 12.80944146078 615.98964938292 3675.642251516
7649	2349556 5716 21121 23340 319.75 369 198 -7.0509309768677 4 43.943227767944 516.48580238398
7648	2355272 5875 21116 23340 319.5 369 199 0 17.25 2195.5637698174 33299.755295073
7647	2361147 6771 21111 23340 319.25 369 200 184.17810058594 486.85000610352 83124.580993652 36452145.97349
7646	2367918 6794 21111 23340 319.25 369 200 238.85028076172 486.85000610352 89762.739685059 41252005.812146
7657	2374712 6621 21140 23450 320.5 371.5 205 0.973 11.882693917199 590.99541924245 3104.2462467851
7656	2381333 6507 21140 23450 320.5 371.5 205 -4.5 2.5000002384186 39.699392318726 447.8019320088
7655	2387840 6712 21133 23450 320.25 371.5 206 0 15.975706100464 2279.0721572116 32154.216599754
7654	2394552 7006 21126 23450 320 371.5 207 161.1796875 483.14999389648 83402.914886475 35886361.700172
7653	2401558 7031 21126 23450 320 371.5 207 486.85000610352 733.7393951416 108829.15789795 58223968.624142
vector 7709  IntersectionExampleScenario.node[82].veinsmobility  posx  ETV
vector 7710  IntersectionExampleScenario.node[82].veinsmobility  posy  ETV
vector 7711  IntersectionExampleScenario.node[82].veinsmobility  speed  ETV
vector 7712  IntersectionExampleScenario.node[82].veinsmobility  acceleration  ETV
vector 7713  IntersectionExampleScenario.node[82].veinsmobility  co2emission  ETV
7664	2408985 6204 21249 23542 324.25 373.5 198 0.973 11.810082123732 574.59820577161 3026.6086422301
7663	2415189 6332 21249 23542 324.25 373.5 198 -3.3867492675781 2.5 40.038900375366 334.22826522194
7662	2421521 6442 21240 23542 324 373.5 199 1.4655550718307 15.875 2256.8257035017 30618.897086399
7661	2427963 6782 21231 23542 323.75 373.5 200 164.36663818359 483.15139770508 79911.703979492 34054128.15785
7660	2434745 6796 21231 23542 323.75 373.5 200 486.85000610352 731.60350036621 105253.95304871 56361788.21233
vector 7716  IntersectionExampleScenario.node[83].veinsmobility  posx  ETV
vector 7717  IntersectionExampleScenario.node[83].veinsmobility  posy  ETV
vector 7723  IntersectionExampleScenario.node[84].veinsmobility  posx  ETV
vector 7724  IntersectionExampleScenario.node[84].veinsmobility  posy  ETV
vector 7718  IntersectionExampleScenario.node[83].veinsmobility  speed  ETV
vector 7719  IntersectionExampleScenario.node[83].veinsmobility  acceleration  ETV
vector 7720  IntersectionExampleScenario.node[83].veinsmobility  co2emission  ETV
vector 7725  IntersectionExampleScenario.node[84].veinsmobility  speed  ETV
vector 7726  IntersectionExampleScenario.node[84].veinsmobility  acceleration  ETV
vector 7727  IntersectionExampleScenario.node[84].veinsmobility  co2emission  ETV
vector 7730  IntersectionExampleScenario.node[85].veinsmobility  posx  ETV
vector 7731  IntersectionExampleScenario.node[85].veinsmobility  posy  ETV
vector 7732  IntersectionExampleScenario.node[85].veinsmobility  speed  ETV
vector 7733  IntersectionExampleScenario.node[85].veinsmobility  acceleration  ETV
vector 7734  IntersectionExampleScenario.node[85].veinsmobility  co2emission  ETV
7671	2442729 6789 21388 24137 328 383.25 222 0.973 11.648172402475 592.56416147086 2955.7065549088
7670	2449518 6216 21388 24137 328 383.25 222 -7.03919506073 4 38.341367721558 478.13103295482
7669	2455734 6524 21377 24137 327.75 383.25 223 0 15.64999961853 2200.0624997616 31109.684844129
7668	2462258 7614 21366 24137 327.5 383.25 224 237.29504394531 486.85000610352 100679.45263672 46331028.480284
7667	2469872 7611 21366 24137 327.5 383.25 224 483.14999389648 785.82187652588 123376.43590546 69974067.954826
vector 7737  IntersectionExampleScenario.node[86].veinsmobility  posx  ETV
vector 7738  IntersectionExampleScenario.node[86].veinsmobility  posy  ETV
vector 7739  IntersectionExampleScenario.node[86].veinsmobility  speed  ETV
vector 7740  IntersectionExampleScenario.node[86].veinsmobility  acceleration  ETV
vector 7741  IntersectionExampleScenario.node[86].veinsmobility  co2emission  ETV
vector 7744  IntersectionExampleScenario.node[87].veinsmobility  posx  ETV
vector 7745  IntersectionExampleScenario.node[87].veinsmobility  posy  ETV
vector 7746  IntersectionExampleScenario.node[87].veinsmobility  speed  ETV
vector 7747  IntersectionExampleScenario.node[87].veinsmobility  acceleration  ETV
vector 7748  IntersectionExampleScenario.node[87].veinsmobility  co2emission  ETV
vector 7751  IntersectionExampleScenario.node[88].veinsmobility  posx  ETV
vector 7752  IntersectionExampleScenario.node[88].veinsmobility  posy  ETV
vector 7753  IntersectionExampleScenario.node[88].veinsmobility  speed  ETV
vector 7754  IntersectionExampleScenario.node[88].veinsmobility  acceleration  ETV
vector 7755  IntersectionExampleScenario.node[88].veinsmobility  co2emission  ETV
vector 7758  IntersectionExampleScenario.node[89].veinsmobility  posx  ETV
vector 7759  IntersectionExampleScenario.node[89].veinsmobility  posy  ETV
vector 7760  IntersectionExampleScenario.node[89].veinsmobility  speed  ETV
vector 7761  IntersectionExampleScenario.node[89].veinsmobility  acceleration  ETV
vector 7762  IntersectionExampleScenario.node[89].veinsmobility  co2emission  ETV
vector 7765  IntersectionExampleScenario.node[90].veinsmobility  posx  ETV
vector 7766  IntersectionExampleScenario.node[90].veinsmobility  posy  ETV
vector 7767  IntersectionExampleScenario.node[90].veinsmobility  speed  ETV
vector 7768  IntersectionExampleScenario.node[90].veinsmobility  acceleration  ETV
vector 7769  IntersectionExampleScenario.node[90].veinsmobility  co2emission  ETV
7678	2479463 7250 21624 24895 334.25 394.25 241 0.973 11.450879080643 598.01449679093 2826.4630507422
7677	2486713 6607 21624 24895 334.25 394.25 241 -8.2128305435181 4 36.813589096069 483.09835472119
7676	2493320 6910 21613 24895 334 394.25 242 0 15.375 2179.3116796017 30171.351539771
7675	2500230 8256 21602 24895 333.75 394.25 243 483.14999389648 732.66677856445 125971.76901245 66428716.905001
7674	2508486 8231 21602 24895 333.75 394.25 243 184.17810058594 486.85000610352 102648.98452759 45445227.051031
vector 7772  IntersectionExampleScenario.node[91].veinsmobility  posx  ETV
vector 7773  IntersectionExampleScenario.node[91].veinsmobility  posy  ETV
vector 7774  IntersectionExampleScenario.node[91].veinsmobility  speed  ETV
vector 7775  IntersectionExampleScenario.node[91].veinsmobility  acceleration  ETV
vector 7776  IntersectionExampleScenario.node[91].veinsmobility  co2emission  ETV
7699	2517113 5630 22437 25046 351.5 396 179 0.973 12.099024792222 562.71927302038 3217.0956198225
7698	2522743 5380 22437 25046 351.5 396 179 -3.641321182251 2.5 40.887662887573 342.76421331286
7697	2528123 5793 22420 25046 351.25 396 180 3.2052710056305 16.27499961853 2187.6761300564 29976.182031784
7696	2533916 6144 22403 25046 351 396 181 236.29913330078 483.14999389648 79532.171112061 35897061.601262
7695	2540060 6120 22403 25046 351 396 181 184.17810058594 483.15811157227 72894.364257812 31109783.989698
vector 7779  IntersectionExampleScenario.node[92].veinsmobility  posx  ETV
vector 7780  IntersectionExampleScenario.node[92].veinsmobility  posy  ETV
vector 7781  IntersectionExampleScenario.node[92].veinsmobility  speed  ETV
vector 7782  IntersectionExampleScenario.node[92].veinsmobility  acceleration  ETV
vector 7783  IntersectionExampleScenario.node[92].veinsmobility  co2emission  ETV
vector 7786  IntersectionExampleScenario.node[93].veinsmobility  posx  ETV
vector 7787  IntersectionExampleScenario.node[93].veinsmobility  posy  ETV
vector 7788  IntersectionExampleScenario.node[93].veinsmobility  speed  ETV
vector 7789  IntersectionExampleScenario.node[93].veinsmobility  acceleration  ETV
vector 7790  IntersectionExampleScenario.node[93].veinsmobility  co2emission  ETV
vector 7793  IntersectionExampleScenario.node[94].veinsmobility  posx  ETV
vector 7794  IntersectionExampleScenario.node[94].veinsmobility  posy  ETV
vector 7795  IntersectionExampleScenario.node[94].veinsmobility  speed  ETV
vector 7796  IntersectionExampleScenario.node[94].veinsmobility  acceleration  ETV
vector 7797  IntersectionExampleScenario.node[94].veinsmobility  co2emission  ETV
7685	2547368 6999 22156 25827 346.25 404.5 234 0.973 12.26218747632 628.04032570097 3363.5494226999
[...]
10533	16516854 8520 137652 143811 1686 1750.25 258 -4.5 2.5 38.680875778198 468.74713150862
10532	16525374 8909 137605 143811 1685.75 1750.25 259 0 15.665287017822 2316.9832726708 32807.424588706
10531	16534283 9620 137558 143811 1685.5 1750.25 260 486.85000610352 486.85000610352 126581.00158691 61625961.395178
10530	16543903 9584 137558 143811 1685.5 1750.25 260 235.66632080078 810.23281097412 136107.1301651 76070479.395335
vector 10621  IntersectionExampleScenario.node[498].veinsmobility  posx  ETV
vector 10622  IntersectionExampleScenario.node[498].veinsmobility  posy  ETV
vector 10623  IntersectionExampleScenario.node[498].veinsmobility  speed  ETV
vector 10624  IntersectionExampleScenario.node[498].veinsmobility  acceleration  ETV
vector 10625  IntersectionExampleScenario.node[498].veinsmobility  co2emission  ETV
vector 10628  IntersectionExampleScenario.node[499].veinsmobility  posx  ETV
vector 10629  IntersectionExampleScenario.node[499].veinsmobility  posy  ETV
vector 10630  IntersectionExampleScenario.node[499].veinsmobility  speed  ETV
vector 10631  IntersectionExampleScenario.node[499].veinsmobility  acceleration  ETV
vector 10632  IntersectionExampleScenario.node[499].veinsmobility  co2emission  ETV
vector 10635  IntersectionExampleScenario.node[500].veinsmobility  posx  ETV
vector 10636  IntersectionExampleScenario.node[500].veinsmobility  posy  ETV
vector 10637  IntersectionExampleScenario.node[500].veinsmobility  speed  ETV
vector 10638  IntersectionExampleScenario.node[500].veinsmobility  acceleration  ETV
vector 10639  IntersectionExampleScenario.node[500].veinsmobility  co2emission  ETV
vector 10642  IntersectionExampleScenario.node[501].veinsmobility  posx  ETV
vector 10643  IntersectionExampleScenario.node[501].veinsmobility  posy  ETV
vector 10644  IntersectionExampleScenario.node[501].veinsmobility  speed  ETV
vector 10645  IntersectionExampleScenario.node[501].veinsmobility  acceleration  ETV
vector 10646  IntersectionExampleScenario.node[501].veinsmobility  co2emission  ETV
10555	16555111 7992 140891 145452 1710.5 1770.5 241 0.973 11.450879080643 603.66042240935 2866.6613250658
10554	16563103 7251 140891 145452 1710.5 1770.5 241 -7.4570107460022 4 37.32285118103 472.71634536335
10553	16570354 7685 140864 145452 1710.25 1770.5 242 0 15.375 2213.2772523165 30957.844020246
10552	16578039 8957 140837 145452 1710 1770.5 243 184.17810058594 733.81198120117 111010.88789368 54946626.33088
10551	16586996 8990 140837 145452 1710 1770.5 243 486.85000610352 486.85000610352 118304.55148315 57596571.611647
10562	16595986 8007 141281 145500 1714.25 1771.25 229 0.973 11.90022389248 622.00721092882 3075.7582902443
10561	16603993 8014 141281 145500 1714.25 1771.25 229 -4.5 2.5 40.038900375366 457.14766808205
10560	16612007 8075 141254 145500 1714 1771.25 230 0 16 2240.1165770497 31815.732857763
10559	16620082 8522 141227 145500 1713.75 1771.25 231 176.21716308594 486.86560058594 96123.080108643 42117033.9693
10558	16628604 8539 141227 145500 1713.75 1771.25 231 236.57629394531 486.85000610352 104256.10110474 48129554.003095
10576	16637143 7012 142007 145660 1722 1774 209 0.973 11.810082123732 569.67776959278 3018.5428952089
10575	16644155 7303 142007 145660 1722 1774 209 -3.8618288040161 2.5 38.850629806519 358.54625748725
10574	16651458 7428 141986 145660 1721.75 1774 210 0 15.875 2193.2009103 28841.443011322
10573	16658886 7771 141965 145660 1721.5 1774 211 184.17810058594 483.14999389648 86256.224182129 37101101.951671
10572	16666657 7801 141965 145660 1721.5 1774 211 486.85000610352 735.1275177002 110967.16624451 59397573.068419
vector 10649  IntersectionExampleScenario.node[502].veinsmobility  posx  ETV
vector 10650  IntersectionExampleScenario.node[502].veinsmobility  posy  ETV
vector 10656  IntersectionExampleScenario.node[503].veinsmobility  posx  ETV
vector 10657  IntersectionExampleScenario.node[503].veinsmobility  posy  ETV
vector 10651  IntersectionExampleScenario.node[502].veinsmobility  speed  ETV
vector 10663  IntersectionExampleScenario.node[504].veinsmobility  posx  ETV
vector 10664  IntersectionExampleScenario.node[504].veinsmobility  posy  ETV
vector 10652  IntersectionExampleScenario.node[502].veinsmobility  acceleration  ETV
vector 10653  IntersectionExampleScenario.node[502].veinsmobility  co2emission  ETV
vector 10658  IntersectionExampleScenario.node[503].veinsmobility  speed  ETV
vector 10659  IntersectionExampleScenario.node[503].veinsmobility  acceleration  ETV
vector 10660  IntersectionExampleScenario.node[503].veinsmobility  co2emission  ETV
vector 10665  IntersectionExampleScenario.node[504].veinsmobility  speed  ETV
vector 10666  IntersectionExampleScenario.node[504].veinsmobility  acceleration  ETV
vector 10667  IntersectionExampleScenario.node[504].veinsmobility  co2emission  ETV
vector 10670  IntersectionExampleScenario.node[505].veinsmobility  posx  ETV
vector 10671  IntersectionExampleScenario.node[505].veinsmobility  posy  ETV
vector 10672  IntersectionExampleScenario.node[505].veinsmobility  speed  ETV
vector 10673  IntersectionExampleScenario.node[505].veinsmobility  acceleration  ETV
vector 10674  IntersectionExampleScenario.node[505].veinsmobility  co2emission  ETV
10611	16676082 5668 143120 146106 1741.5 1780.5 157 0.973 11.648172402475 491.52726649725 2636.9338880946
10610	16681750 5197 143120 146106 1741.5 1780.5 157 -3.3749504089355 2.5 38.511121749878 234.68495490327
10609	16686947 5559 143101 146106 1741.25 1780.5 158 5.6500000953674 15.64999961853 2208.4046278 31807.746712363
10608	16692506 5862 143082 146106 1741 1780.5 159 184.17810058594 486.85000610352 63312.023651123 26984298.110733
10607	16698368 5877 143082 146106 1741 1780.5 159 236.83752441406 486.85000610352 69019.078063965 30914108.780926
10569	16704245 8133 141927 146259 1721 1782.75 248 0.973 12.099024792222 642.79073984698 3284.292076599
10568	16712378 7361 141927 146259 1721 1782.75 248 -23.683166503906 4 40.887662887573 994.79315301185
10567	16719739 7652 141908 146259 1720.75 1782.75 249 0 16.27499961853 2204.6500577927 32604.568846923
10566	16727391 9248 141889 146259 1720.5 1782.75 250 236.69555664062 486.85000610352 113616.66091919 52720746.43395
10565	16736639 9245 141889 146259 1720.5 1782.75 250 483.14999389648 785.82187652588 136013.1256485 76059031.5936
10583	16745884 6825 142790 146480 1736.25 1786 200 0.973 11.450879080643 546.94029348342 2721.4923109063
10582	16752709 7110 142790 146480 1736.25 1786 200 -2.135440826416 2.5 37.15309715271 286.55270227468
10581	16759819 7242 142779 146480 1736 1786 201 1.4637203216553 15.375 2211.9986828566 28948.683058259
10580	16767061 7467 142768 146480 1735.75 1786 202 235.55499267578 486.85000610352 89698.751983643 40910089.620894
10579	16774528 7467 142768 146480 1735.75 1786 202 483.05752563477 785.82187652588 113407.17473602 65563275.337592
10597	16781995 6931 142868 146548 1737.75 1787 198 0.973 11.54047740176 563.28014654385 2817.4075741363
10596	16788926 6929 142868 146548 1737.75 1787 198 -4.5 2.5 37.662351608276 349.65590190795
10595	16795855 7135 142853 146548 1737.5 1787 199 3.2648923397064 15.5 2300.1896212101 30538.745686958
10594	16802990 7400 142838 146548 1737.25 1787 200 486.85000610352 486.85000610352 97370.001220703 47404585.688598
10593	16810390 7378 142838 146548 1737.25 1787 200 236.07019042969 806.11563110352 106482.82206726 61361727.038229
vector 10677  IntersectionExampleScenario.node[506].veinsmobility  posx  ETV
vector 10678  IntersectionExampleScenario.node[506].veinsmobility  posy  ETV
vector 10679  IntersectionExampleScenario.node[506].veinsmobility  speed  ETV
vector 10680  IntersectionExampleScenario.node[506].veinsmobility  acceleration  ETV
vector 10681  IntersectionExampleScenario.node[506].veinsmobility  co2emission  ETV
10618	16818174 5654 143580 146658 1747.5 1788.5 165 0.973 12.099024792222 522.70614232506 2996.8214725535
10617	16823828 5526 143580 146658 1747.5 1788.5 165 -3.5545043945312 2.5 41.736440658569 244.77473745909
10616	16829354 5889 143559 146658 1747.25 1788.5 166 5.6500000953674 16.27499961853 2216.4083919525 30980.238496458
10615	16835243 6178 143538 146658 1747 1788.5 167 486.85000610352 486.85000610352 81303.951019287 39582829.04998
10614	16841421 6165 143538 146658 1747 1788.5 167 237.01611328125 785.82187652588 88144.253089905 50563898.198344
vector 10684  IntersectionExampleScenario.node[507].veinsmobility  posx  ETV
vector 10685  IntersectionExampleScenario.node[507].veinsmobility  posy  ETV
vector 10686  IntersectionExampleScenario.node[507].veinsmobility  speed  ETV
vector 10687  IntersectionExampleScenario.node[507].veinsmobility  acceleration  ETV
vector 10688  IntersectionExampleScenario.node[507].veinsmobility  co2emission  ETV
vector 10691  IntersectionExampleScenario.node[508].veinsmobility  posx  ETV
vector 10692  IntersectionExampleScenario.node[508].veinsmobility  posy  ETV
vector 10693  IntersectionExampleScenario.node[508].veinsmobility  speed  ETV
vector 10694  IntersectionExampleScenario.node[508].veinsmobility  acceleration  ETV
vector 10695  IntersectionExampleScenario.node[508].veinsmobility  co2emission  ETV
vector 10698  IntersectionExampleScenario.node[509].veinsmobility  posx  ETV
vector 10699  IntersectionExampleScenario.node[509].veinsmobility  posy  ETV
vector 10700  IntersectionExampleScenario.node[509].veinsmobility  speed  ETV
vector 10701  IntersectionExampleScenario.node[509].veinsmobility  acceleration  ETV
vector 10702  IntersectionExampleScenario.node[509].veinsmobility  co2emission  ETV
10590	16848804 7682 142838 147069 1737.25 1794.5 230 0.973 11.450879080643 588.44347998862 2839.2404966473
10589	16856486 7109 142838 147069 1737.25 1794.5 230 -6.7512178421021 4 36.813589096069 457.54872436805
10588	16863595 7439 142825 147069 1737 1794.5 231 0 15.375 2206.954782486 30638.083930216
10587	16871034 8584 142812 147069 1736.75 1794.5 232 483.14999389648 483.14999389648 112090.79858398 54156668.651704
10586	16879618 8546 142812 147069 1736.75 1794.5 232 184.17810058594 732.10963439941 105713.50378418 52388391.324878
vector 10705  IntersectionExampleScenario.node[510].veinsmobility  posx  ETV
vector 10706  IntersectionExampleScenario.node[510].veinsmobility  posy  ETV
vector 10707  IntersectionExampleScenario.node[510].veinsmobility  speed  ETV
vector 10708  IntersectionExampleScenario.node[510].veinsmobility  acceleration  ETV
vector 10709  IntersectionExampleScenario.node[510].veinsmobility  co2emission  ETV
10604	16888570 8106 142962 147206 1739.25 1796.25 229 0.973 11.200708441096 582.80858985394 2691.2353579053
10603	16896676 8022 142962 147206 1739.25 1796.25 229 -4.5 2.5000000670552 35.285810470581 426.26807235917
10602	16904698 8272 142945 147206 1739 1796.25 230 0 15.02499961853 2274.2870705677 30466.123928969
10601	16912970 8538 142928 147206 1738.75 1796.25 231 483.14999389648 732.28817749023 120372.25152588 63849378.136056
10600	16921508 8489 142928 147206 1738.75 1796.25 231 166.078125 486.86660766602 94801.864868164 41254173.354679
vector 10712  IntersectionExampleScenario.node[511].veinsmobility  posx  ETV
vector 10713  IntersectionExampleScenario.node[511].veinsmobility  posy  ETV
vector 10714  IntersectionExampleScenario.node[511].veinsmobility  speed  ETV
vector 10715  IntersectionExampleScenario.node[511].veinsmobility  acceleration  ETV
vector 10716  IntersectionExampleScenario.node[511].veinsmobility  co2emission  ETV
vector 10719  IntersectionExampleScenario.node[512].veinsmobility  posx  ETV
vector 10720  IntersectionExampleScenario.node[512].veinsmobility  posy  ETV
vector 10721  IntersectionExampleScenario.node[512].veinsmobility  speed  ETV
vector 10722  IntersectionExampleScenario.node[512].veinsmobility  acceleration  ETV
vector 10723  IntersectionExampleScenario.node[512].veinsmobility  co2emission  ETV
10625	16930809 6138 144209 147550 1755 1800 181 0.97223939240464 11.648172402475 529.25318213654 2845.1649840055
10624	16936947 5859 144209 147550 1755 1800 181 -7.1630640029907 4 38.680879592896 471.7125829925
10623	16942806 5954 144188 147550 1754.75 1800 182 0 15.64999961853 1882.7610580921 26342.654089159
10622	16948760 6760 144167 147550 1754.5 1800 183 483.14999389648 785.82187652588 103231.95749664 60067861.720401
10621	16955520 6766 144167 147550 1754.5 1800 183 483.14999389648 653.35092163086 92360.44480896 46974425.174629
10632	16962286 6018 144387 147550 1757.25 1800 172 0.973 11.450879080643 496.73495441587 2627.0851146454
10631	16968304 5975 144387 147550 1757.25 1800 172 -4.5 2.5 36.985902786255 414.93877749548
10630	16974279 6197 144366 147550 1757 1800 173 0 15.375 1786.3749286216 23896.460504609
10629	16980476 6418 144345 147550 1756.75 1800 174 482.97915649414 802.70781707764 100897.17807007 60479379.762523
10628	16986894 6433 144345 147550 1756.75 1800 174 483.14999389648 611.98815917969 86424.911468506 43095610.560485
10639	16993327 5564 144620 147550 1760.25 1800 160 0.973 11.648172402475 505.64661468126 2812.648521101
10638	16998891 5359 144620 147550 1760.25 1800 160 -7.4922728538513 4 38.171648025513 481.23649532421
10637	17004250 5468 144599 147550 1760 1800 161 0 15.64999961853 1878.5806435347 26151.548466051
10636	17009718 5964 144578 147550 1759.75 1800 162 184.17810058594 486.85000610352 64321.819946289 27271319.53743
10635	17015682 5990 144578 147550 1759.75 1800 162 317.59637451172 486.85000610352 74940.474456787 35012855.385664
10646	17021672 4635 144980 147550 1764.5 1800 143 0.973 11.200708441096 329.28464684463 1454.6389497701
10645	17026307 4267 144980 147550 1764.5 1800 143 -8.4870567321777 4 -1.1000003814697 381.38853871578
10644	17030574 4567 144958 147550 1764.25 1800 144 0 15.02499961853 1171.7679541111 15897.63522419
10643	17035141 5362 144935 147550 1764 1800 145 486.85000610352 488.3235168457 70596.647491455 34371635.404215
10642	17040503 5352 144935 147550 1764 1800 145 493.81311035156 785.82187652588 85260.368309021 51618031.512047
10653	17045855 3490 145757 147550 1775.75 1800 98 0.973 11.648172402475 335.7894977354 1938.534916508
10652	17049345 3040 145757 147550 1775.75 1800 98 -3.2846527099609 2.5 28.89999961853 210.09719895004
10651	17052385 3422 145740 147550 1775.5 1800 99 5.6500000953674 15.64999961853 1326.0254573822 18626.561366616
10650	17055807 3692 145725 147550 1775.25 1800 100 483.14999389648 785.82187652588 62246.427696228 39801002.056158
10649	17059499 3697 145725 147550 1775.25 1800 100 483.14999389648 513.53839111328 48518.164764404 23543747.45499
10660	17063196 3302 145776 147550 1776 1800 97 0.973 11.648172402475 272.08941764437 1448.6693918582
10659	17066498 3296 145776 147550 1776 1800 97 -7.0929417610168 2.5 -22.60000038147 322.24078740908
10658	17069794 3470 145757 147550 1775.75 1800 98 0 15.64999961853 1147.3596698046 16111.715776408
10657	17073264 3662 145740 147550 1775.5 1800 99 483.14999389648 483.14999389648 47831.849395752 23109957.743615
10656	17076926 3636 145740 147550 1775.5 1800 99 184.17810058594 471.60000610352 33861.32131958 12538227.698752
10667	17080562 3398 145795 147550 1776.25 1800 96 0.97223939240464 11.648172402475 300.64444992055 1599.9184865787
10666	17083960 3174 145795 147550 1776.25 1800 96 -4.5 2.5 8.3999996185303 282.02256825679
10665	17087134 3498 145776 147550 1776 1800 97 4.068027973175 15.64999961853 1230.708407402 16973.506482629
10664	17090632 3600 145757 147550 1775.75 1800 98 184.17810058594 483.3928527832 33551.455810547 12462671.36703
10663	17094232 3623 145757 147550 1775.75 1800 98 486.85000610352 498.82577514648 47762.09197998 23278081.347872
10674	17097855 2973 146020 147550 1779.25 1800 84 0.973 11.648172402475 277.16205170005 1595.7185058795
10673	17100828 2962 146020 147550 1779.25 1800 84 -4.5 2.5 6.6400203704834 241.25600157213
10672	17103790 3129 146001 147550 1779 1800 85 5.6500000953674 15.64999961853 1176.7242469788 16852.293567603
10671	17106919 3150 145982 147550 1778.75 1800 86 171.40313720703 463.24227905273 26682.363525391 8998001.326207
10670	17110069 3181 145982 147550 1778.75 1800 86 486.85000610352 486.85000610352 41869.100524902 20383971.846097
10681	17113250 1794 146620 147550 1788 1800 49 0.973 12.099024792222 211.41438559291 1471.4416180261
10680	17115044 1726 146620 147550 1788 1800 49 -0.36064910888672 2.5 40.648553848267 106.64057329695
10679	17116770 1836 146601 147550 1787.75 1800 50 5.6500000953674 16.27499961853 707.53004932404 10487.246280313
10678	17118606 1866 146582 147550 1787.5 1800 51 184.17810058594 355.80902099609 13242.450622559 3587348.3164456
10677	17120472 1886 146582 147550 1787.5 1800 51 486.85000610352 486.85000610352 24829.350311279 12088169.350593
10688	17122358 1510 146766 147550 1790 1800 41 1.9337556822354 11.648172402475 188.40538153594 1306.2893117721
10687	17123868 1428 146766 147550 1790 1800 41 -0.075153350830078 2.5 39.699613571167 100.01290034518
10686	17125296 1540 146749 147550 1789.75 1800 42 5.6500000953674 15.64999961853 570.64644241333 8158.978278747
10685	17126836 1590 146732 147550 1789.5 1800 43 486.85000610352 486.85000610352 20934.550262451 10191985.923049
10684	17128426 1589 146732 147550 1789.5 1800 43 648.37815856934 785.82187652588 31234.887809753 22769837.687909
10695	17130015 1031 146978 147550 1793.25 1800 28 1.9337556822354 11.648172402475 159.70496708186 1242.9266278128
10694	17131046 892 146978 147550 1793.25 1800 28 -0.075153350830078 2.5 39.708906173706 100.01288740209
10693	17131938 1060 146961 147550 1793 1800 29 5.6500000953674 15.64999961853 368.16646671295 5005.2751552359
10692	17132998 1109 146944 147550 1792.75 1800 30 698.99913024902 785.82187652588 22502.254936218 16901010.72391
10691	17134107 1109 146944 147550 1792.75 1800 30 483.14999389648 483.14999389648 14494.499816895 7003017.4980652
10702	17135216 884 147050 147550 1794.25 1800 24 1.9337556822354 11.648172402475 150.93904448684 1223.7161352015
10701	17136100 732 147050 147550 1794.25 1800 24 -0.075153350830078 2.5 39.72947883606 100.01277097878
10700	17136832 913 147031 147550 1794 1800 25 5.6500000953674 15.64999961853 305.85165214539 4034.4911206109
10699	17137745 942 147012 147550 1793.75 1800 26 184.17810058594 255.41998291016 5537.1104125977 1192323.8416295
10698	17138687 961 147012 147550 1793.75 1800 26 486.85000610352 486.85000610352 12658.100158691 6162596.1395178
10709	17139648 582 147206 147550 1796.25 1800 16 0.973 8.9604255219119 81.863236922609 522.86972849434
10708	17140230 467 147206 147550 1796.25 1800 16 -2.2871475219727 2.5 24.715528488159 67.05515663722
10707	17140697 627 147185 147550 1796 1800 17 5.6500000953674 11.828882217407 137.33573150635 1174.1368241203
10706	17141324 665 147164 147550 1795.75 1800 18 767.99253082275 798.59687805176 14145.283905029 11117704.548071
10705	17141989 665 147164 147550 1795.75 1800 18 483.14999389648 483.14999389648 8696.6998901367 4201810.4988391
10716	17142654 476 147273 147550 1797 1800 13 5.2162187258585 10.315404520939 100.64515864481 812.01557512667
10715	17143130 335 147273 147550 1797 1800 13 2.4999980926514 2.5 32.499998092651 81.24999046326
10714	17143465 510 147250 147550 1796.75 1800 14 5.6500000953674 13.77499961853 135.97499656677 1409.5242963886
10713	17143975 554 147227 147550 1796.5 1800 15 743.63438415527 773.16876220703 11419.228279114 8694595.0192077
10712	17144529 554 147227 147550 1796.5 1800 15 483.14999389648 483.14999389648 7247.2499084473 3501508.7490326
10723	17145083 256 147414 147550 1798.5 1800 7 5.2162187258585 7.726741696285 45.269477411621 297.66192607747
10722	17145339 186 147414 147550 1798.5 1800 7 2.4999980926514 2.5 17.499998092651 43.74999046326
10721	17145525 295 147390 147550 1798.25 1800 8 5.6500000953674 10.02499961853 62.699998855591 507.81747729302
10720	17145820 331 147365 147550 1798 1800 9 483.14999389648 483.14999389648 4348.3499450684 2100905.2494196
10719	17146151 326 147365 147550 1798 1800 9 184.17810058594 196.79998779297 1703.7155761719 322683.41850586
7131	17146477 599 0 147549 0 1800 31 0 27 439 6985
7132	17147076 612 0 147549 0 1800 31 0 161 2386 257910
