file 15943826 1591478504                                        
version 2
run nodebug-11-20200606-17:18:57-10964
attr configname nodebug
attr datetime 20200606-17:18:57
attr experiment nodebug
attr inifile omnetpp.ini
attr iterationvars ""
attr iterationvars2 $repetition=11
attr measurement ""
attr network "\"org.car2x.veins.modules.application.ExtTraCIScenarioManagerLaunchd.IntersectionExampleScenario\""
attr processid 10964
attr repetition 11
attr replication #11
attr resultdir results
attr runnumber 11
attr seedset 11
param **.coreDebug false
param **.debug false
param *.**.nic.mac1609_4.bitrate 18Mbps
param *.**.nic.mac1609_4.txPower 20mW
param *.**.nic.mac1609_4.useServiceChannel false
param *.**.nic.phy80211p.analogueModels "xmldoc(\"config.xml\")"
param *.**.nic.phy80211p.decider "xmldoc(\"config.xml\")"
param *.**.nic.phy80211p.sensitivity -89dBm
param *.**.nic.phy80211p.thermalNoise -110dBm
param *.**.nic.phy80211p.usePropagationDelay true
param *.**.nic.phy80211p.useThermalNoise true
param *.annotations.draw false
param *.connectionManager.alpha 2.0
param *.connectionManager.carrierFrequency "5.890e9 Hz"
param *.connectionManager.pMax 20mW
param *.connectionManager.sat -89dBm
param *.connectionManager.sendDirect true
param *.manager.autoShutdown true
param *.manager.host "\"localhost\""
param *.manager.launchConfig "xmldoc(\"paramics.launchd.xml\")"
param *.manager.margin 25
param *.manager.moduleDisplayString "\"\""
param *.manager.moduleName "\"node\""
param *.manager.moduleType "\"org.car2x.veins.nodes.Car\""
param *.manager.port 9999
param *.manager.updateInterval 250ms
param *.node[*0].veinsmobility.accidentCount 0
param *.node[*0].veinsmobility.accidentDuration 30s
param *.node[*0].veinsmobility.accidentStart 75s
param *.node[*].appl.LiderSelectZoneRadio 55.0
param *.node[*].appl.ShareDataZoneRadio 110.0
param *.node[*].appl.TiempoSemaforo 30.0
param *.node[*].appl.beaconInterval 1s
param *.node[*].appl.beaconPriority 3
param *.node[*].appl.dataOnSch false
param *.node[*].appl.dataPriority 2
param *.node[*].appl.debug false
param *.node[*].appl.headerLength "256 bit"
param *.node[*].appl.maxOffset 0.005s
param *.node[*].appl.sendBeacons false
param *.node[*].appl.sendData true
param *.node[*].applType "\"Dummy\""
param *.node[*].mobilityType "\"TraCIMobility\""
param *.node[*].mobilityType.debug true
param *.node[*].veinsmobility.x 0
param *.node[*].veinsmobility.y 0
param *.node[*].veinsmobility.z 1.895
param *.node[*].veinsmobilityType "\"org.car2x.veins.modules.mobility.traci.TraCIMobility\""
param *.node[*].veinsmobilityType.debug true
param *.playgroundSizeX 8500m
param *.playgroundSizeY 8500m
param *.playgroundSizeZ 50m
param *.world.use2D false
param *.world.useTorus false

vector 18047  IntersectionExampleScenario.manager  vehiclesinsim  ETV
attr type  int
vector 18048  IntersectionExampleScenario.manager  realtime  ETV
attr type  int
attr unit  s
vector 18051  IntersectionExampleScenario.node[0].veinsmobility  posx  ETV
vector 18052  IntersectionExampleScenario.node[0].veinsmobility  posy  ETV
vector 18053  IntersectionExampleScenario.node[0].veinsmobility  speed  ETV
vector 18054  IntersectionExampleScenario.node[0].veinsmobility  acceleration  ETV
vector 18055  IntersectionExampleScenario.node[0].veinsmobility  co2emission  ETV
vector 18058  IntersectionExampleScenario.node[1].veinsmobility  posx  ETV
vector 18059  IntersectionExampleScenario.node[1].veinsmobility  posy  ETV
vector 18060  IntersectionExampleScenario.node[1].veinsmobility  speed  ETV
vector 18061  IntersectionExampleScenario.node[1].veinsmobility  acceleration  ETV
vector 18062  IntersectionExampleScenario.node[1].veinsmobility  co2emission  ETV
vector 18065  IntersectionExampleScenario.node[2].veinsmobility  posx  ETV
vector 18066  IntersectionExampleScenario.node[2].veinsmobility  posy  ETV
vector 18067  IntersectionExampleScenario.node[2].veinsmobility  speed  ETV
vector 18068  IntersectionExampleScenario.node[2].veinsmobility  acceleration  ETV
vector 18069  IntersectionExampleScenario.node[2].veinsmobility  co2emission  ETV
vector 18072  IntersectionExampleScenario.node[3].veinsmobility  posx  ETV
vector 18073  IntersectionExampleScenario.node[3].veinsmobility  posy  ETV
vector 18074  IntersectionExampleScenario.node[3].veinsmobility  speed  ETV
vector 18075  IntersectionExampleScenario.node[3].veinsmobility  acceleration  ETV
vector 18076  IntersectionExampleScenario.node[3].veinsmobility  co2emission  ETV
vector 18079  IntersectionExampleScenario.node[4].veinsmobility  posx  ETV
vector 18080  IntersectionExampleScenario.node[4].veinsmobility  posy  ETV
vector 18081  IntersectionExampleScenario.node[4].veinsmobility  speed  ETV
vector 18082  IntersectionExampleScenario.node[4].veinsmobility  acceleration  ETV
vector 18083  IntersectionExampleScenario.node[4].veinsmobility  co2emission  ETV
vector 18086  IntersectionExampleScenario.node[5].veinsmobility  posx  ETV
vector 18087  IntersectionExampleScenario.node[5].veinsmobility  posy  ETV
vector 18088  IntersectionExampleScenario.node[5].veinsmobility  speed  ETV
vector 18089  IntersectionExampleScenario.node[5].veinsmobility  acceleration  ETV
vector 18090  IntersectionExampleScenario.node[5].veinsmobility  co2emission  ETV
vector 18093  IntersectionExampleScenario.node[6].veinsmobility  posx  ETV
vector 18094  IntersectionExampleScenario.node[6].veinsmobility  posy  ETV
vector 18095  IntersectionExampleScenario.node[6].veinsmobility  speed  ETV
vector 18096  IntersectionExampleScenario.node[6].veinsmobility  acceleration  ETV
vector 18097  IntersectionExampleScenario.node[6].veinsmobility  co2emission  ETV
vector 18100  IntersectionExampleScenario.node[7].veinsmobility  posx  ETV
vector 18101  IntersectionExampleScenario.node[7].veinsmobility  posy  ETV
vector 18102  IntersectionExampleScenario.node[7].veinsmobility  speed  ETV
vector 18103  IntersectionExampleScenario.node[7].veinsmobility  acceleration  ETV
vector 18104  IntersectionExampleScenario.node[7].veinsmobility  co2emission  ETV
vector 18107  IntersectionExampleScenario.node[8].veinsmobility  posx  ETV
vector 18108  IntersectionExampleScenario.node[8].veinsmobility  posy  ETV
vector 18109  IntersectionExampleScenario.node[8].veinsmobility  speed  ETV
vector 18110  IntersectionExampleScenario.node[8].veinsmobility  acceleration  ETV
vector 18111  IntersectionExampleScenario.node[8].veinsmobility  co2emission  ETV
18076	6500 4968 177 1948 15 54 157 0.973 11.648172402475 491.52726649725 2636.9338880946
18075	11468 4497 177 1948 15 54 157 -3.3749542236328 2.5 38.511121749878 234.68497122889
18074	15965 4855 168 1948 14.75 54 158 5.6500000953674 15.64999961853 2208.4046268463 31807.746694608
18073	20820 5166 159 1948 14.5 54 159 483.14999389648 733.16246032715 85210.921936035 46620197.334619
18072	25986 5154 159 1948 14.5 54 159 184.17810058594 486.85000610352 63312.023651123 26984298.110733
vector 18114  IntersectionExampleScenario.node[9].veinsmobility  posx  ETV
vector 18115  IntersectionExampleScenario.node[9].veinsmobility  posy  ETV
vector 18116  IntersectionExampleScenario.node[9].veinsmobility  speed  ETV
vector 18117  IntersectionExampleScenario.node[9].veinsmobility  acceleration  ETV
vector 18118  IntersectionExampleScenario.node[9].veinsmobility  co2emission  ETV
18069	31536 5198 138 1987 13.75 55 166 0.973 11.54047740176 521.35987750936 2746.5071530116
18068	36734 4795 138 1987 13.75 55 166 -3.3531064987183 2.5 37.15309715271 335.48359783073
18067	41529 5298 131 1987 13.5 55 167 3.8894097805023 15.5 2216.4138226509 30975.959752838
18066	46827 5450 124 1987 13.25 55 168 235.95147705078 785.82187652588 87307.027458191 49594287.32453
18065	52277 5467 124 1987 13.25 55 168 483.14999389648 483.14999389648 81169.198974609 39216897.989165
18062	57744 5425 89 1996 11.5 55.25 176 0.973 11.648172402475 559.20741840928 2828.3182453141
18061	63169 5047 89 1996 11.5 55.25 176 -6.9388580322266 4 39.869146347046 461.15076703848
18060	68216 5462 84 1996 11.25 55.25 177 0 15.64999961853 2207.6534609795 31687.66214131
18059	73678 5753 79 1996 11 55.25 178 184.17810058594 731.90045166016 80251.492019653 40240977.231032
18058	79431 5782 79 1996 11 55.25 178 486.85000610352 486.85000610352 86659.301086426 42190081.262853
vector 18121  IntersectionExampleScenario.node[10].veinsmobility  posx  ETV
vector 18122  IntersectionExampleScenario.node[10].veinsmobility  posy  ETV
vector 18123  IntersectionExampleScenario.node[10].veinsmobility  speed  ETV
vector 18124  IntersectionExampleScenario.node[10].veinsmobility  acceleration  ETV
vector 18125  IntersectionExampleScenario.node[10].veinsmobility  co2emission  ETV
vector 18128  IntersectionExampleScenario.node[11].veinsmobility  posx  ETV
vector 18129  IntersectionExampleScenario.node[11].veinsmobility  posy  ETV
vector 18130  IntersectionExampleScenario.node[11].veinsmobility  speed  ETV
18083	85846 4815 316 2073 18.75 57 154 0.973 11.90022389248 527.85143018039 3057.1062001473
18082	90661 4533 316 2073 18.75 57 154 -3.7020263671875 2.5 41.227170944214 275.00796676049
18081	95194 4757 305 2073 18.5 57 155 5.6500000953674 16.024513244629 2212.5658130646 32679.239260362
18080	99951 5085 294 2073 18.25 57 156 483.14999389648 785.82187652588 89271.776435852 52835764.157479
18079	105036 5081 294 2073 18.25 57 156 483.14999389648 734.00270080566 83478.920410156 45602664.01147
vector 18131  IntersectionExampleScenario.node[11].veinsmobility  acceleration  ETV
vector 18132  IntersectionExampleScenario.node[11].veinsmobility  co2emission  ETV
vector 18135  IntersectionExampleScenario.node[12].veinsmobility  posx  ETV
vector 18136  IntersectionExampleScenario.node[12].veinsmobility  posy  ETV
vector 18137  IntersectionExampleScenario.node[12].veinsmobility  speed  ETV
vector 18138  IntersectionExampleScenario.node[12].veinsmobility  acceleration  ETV
vector 18139  IntersectionExampleScenario.node[12].veinsmobility  co2emission  ETV
vector 18142  IntersectionExampleScenario.node[13].veinsmobility  posx  ETV
vector 18143  IntersectionExampleScenario.node[13].veinsmobility  posy  ETV
vector 18144  IntersectionExampleScenario.node[13].veinsmobility  speed  ETV
vector 18145  IntersectionExampleScenario.node[13].veinsmobility  acceleration  ETV
vector 18146  IntersectionExampleScenario.node[13].veinsmobility  co2emission  ETV
vector 18149  IntersectionExampleScenario.node[14].veinsmobility  posx  ETV
vector 18150  IntersectionExampleScenario.node[14].veinsmobility  posy  ETV
vector 18151  IntersectionExampleScenario.node[14].veinsmobility  speed  ETV
vector 18152  IntersectionExampleScenario.node[14].veinsmobility  acceleration  ETV
vector 18153  IntersectionExampleScenario.node[14].veinsmobility  co2emission  ETV
18055	111489 6962 34 2723 7.25 68.25 245 0.973 11.648172402475 614.629938066 2995.3549843126
18054	118451 6298 34 2723 7.25 68.25 245 -7.4922199249268 4 38.171613693237 484.73603371837
18053	124749 6626 31 2723 7 68.25 246 0 15.64999961853 2209.8923177719 31296.209765439
18052	131375 8013 28 2723 6.75 68.25 247 486.85000610352 486.85000610352 120251.95150757 58544663.325419
18051	139388 7990 28 2723 6.75 68.25 247 237.14044189453 785.82187652588 126744.18099213 69205695.560631
18097	147378 5243 771 2888 28.5 71 171 0.973 12.099024792222 561.48813928034 3321.1998582186
18096	152621 5153 771 2888 28.5 71 171 -2.8663730621338 2.5000019073486 40.378400802612 347.22007087065
18095	157774 5328 756 2888 28.25 71 172 5.5174255371094 16.27499961853 2186.0328617096 30104.020605913
18094	163102 5663 741 2888 28 71 173 486.85000610352 733.10374450684 92168.762619019 50037234.402389
18093	168765 5671 741 2888 28 71 173 486.77020263672 785.82187652588 98561.304740906 57887700.358429
vector 18156  IntersectionExampleScenario.node[15].veinsmobility  posx  ETV
vector 18157  IntersectionExampleScenario.node[15].veinsmobility  posy  ETV
vector 18158  IntersectionExampleScenario.node[15].veinsmobility  speed  ETV
vector 18159  IntersectionExampleScenario.node[15].veinsmobility  acceleration  ETV
vector 18160  IntersectionExampleScenario.node[15].veinsmobility  co2emission  ETV
18090	174837 6315 650 3415 26.25 79.25 213 0.973 11.648172402475 577.409654912 2910.0855476838
18089	181152 5906 650 3415 26.25 79.25 213 -6.7528100013733 4 37.832105636597 462.13160493042
18088	187058 6081 637 3415 26 79.25 214 0 15.64999961853 2171.6554902792 30301.291559092
18087	193139 6997 624 3415 25.75 79.25 215 238.50537109375 483.14999389648 95734.380737305 43643893.529288
18086	200136 7047 624 3415 25.75 79.25 215 184.17810058594 483.36395263672 89345.612884521 39090481.190341
vector 18163  IntersectionExampleScenario.node[16].veinsmobility  posx  ETV
vector 18164  IntersectionExampleScenario.node[16].veinsmobility  posy  ETV
vector 18170  IntersectionExampleScenario.node[17].veinsmobility  posx  ETV
vector 18171  IntersectionExampleScenario.node[17].veinsmobility  posy  ETV
vector 18165  IntersectionExampleScenario.node[16].veinsmobility  speed  ETV
vector 18166  IntersectionExampleScenario.node[16].veinsmobility  acceleration  ETV
vector 18167  IntersectionExampleScenario.node[16].veinsmobility  co2emission  ETV
vector 18172  IntersectionExampleScenario.node[17].veinsmobility  speed  ETV
vector 18173  IntersectionExampleScenario.node[17].veinsmobility  acceleration  ETV
vector 18174  IntersectionExampleScenario.node[17].veinsmobility  co2emission  ETV
vector 18177  IntersectionExampleScenario.node[18].veinsmobility  posx  ETV
vector 18178  IntersectionExampleScenario.node[18].veinsmobility  posy  ETV
vector 18179  IntersectionExampleScenario.node[18].veinsmobility  speed  ETV
vector 18180  IntersectionExampleScenario.node[18].veinsmobility  acceleration  ETV
vector 18181  IntersectionExampleScenario.node[18].veinsmobility  co2emission  ETV
vector 18184  IntersectionExampleScenario.node[19].veinsmobility  posx  ETV
vector 18185  IntersectionExampleScenario.node[19].veinsmobility  posy  ETV
vector 18186  IntersectionExampleScenario.node[19].veinsmobility  speed  ETV
vector 18187  IntersectionExampleScenario.node[19].veinsmobility  acceleration  ETV
vector 18188  IntersectionExampleScenario.node[19].veinsmobility  co2emission  ETV
18104	208787 5374 1503 3845 42 84.75 172 0.973 10.916047529558 517.26515565502 2809.6133781493
18103	214161 5218 1503 3845 42 84.75 172 -3.2805595397949 2.5 33.418523788452 301.0876466911
18102	219379 5376 1494 3845 41.75 84.75 173 5.6500000953674 14.625 2178.5612068176 28417.53781294
18101	224755 5736 1485 3845 41.5 84.75 174 237.59466552734 483.14999389648 75257.65612793 33544864.085832
18100	230491 5706 1485 3845 41.5 84.75 174 184.17810058594 483.19540405273 69287.200927734 29410085.021888
vector 18191  IntersectionExampleScenario.node[20].veinsmobility  posx  ETV
vector 18192  IntersectionExampleScenario.node[20].veinsmobility  posy  ETV
vector 18193  IntersectionExampleScenario.node[20].veinsmobility  speed  ETV
vector 18194  IntersectionExampleScenario.node[20].veinsmobility  acceleration  ETV
vector 18195  IntersectionExampleScenario.node[20].veinsmobility  co2emission  ETV
vector 18198  IntersectionExampleScenario.node[21].veinsmobility  posx  ETV
vector 18199  IntersectionExampleScenario.node[21].veinsmobility  posy  ETV
vector 18200  IntersectionExampleScenario.node[21].veinsmobility  speed  ETV
vector 18201  IntersectionExampleScenario.node[21].veinsmobility  acceleration  ETV
vector 18202  IntersectionExampleScenario.node[21].veinsmobility  co2emission  ETV
vector 18205  IntersectionExampleScenario.node[22].veinsmobility  posx  ETV
vector 18206  IntersectionExampleScenario.node[22].veinsmobility  posy  ETV
vector 18212  IntersectionExampleScenario.node[23].veinsmobility  posx  ETV
vector 18213  IntersectionExampleScenario.node[23].veinsmobility  posy  ETV
vector 18207  IntersectionExampleScenario.node[22].veinsmobility  speed  ETV
vector 18208  IntersectionExampleScenario.node[22].veinsmobility  acceleration  ETV
vector 18209  IntersectionExampleScenario.node[22].veinsmobility  co2emission  ETV
vector 18214  IntersectionExampleScenario.node[23].veinsmobility  speed  ETV
vector 18215  IntersectionExampleScenario.node[23].veinsmobility  acceleration  ETV
vector 18216  IntersectionExampleScenario.node[23].veinsmobility  co2emission  ETV
vector 18219  IntersectionExampleScenario.node[24].veinsmobility  posx  ETV
vector 18220  IntersectionExampleScenario.node[24].veinsmobility  posy  ETV
vector 18221  IntersectionExampleScenario.node[24].veinsmobility  speed  ETV
vector 18222  IntersectionExampleScenario.node[24].veinsmobility  acceleration  ETV
vector 18223  IntersectionExampleScenario.node[24].veinsmobility  co2emission  ETV
18132	238202 5119 2086 4813 57.25 96.5 158 0.973 11.200708441096 456.54107379056 2202.2662479169
18131	243321 4633 2086 4813 57.25 96.5 158 -3.1162986755371 2.5 36.134572982788 173.86357886691
18130	247954 5029 2073 4813 57 96.5 159 5.6500000953674 15.02499961853 2211.1317615509 31269.311098317
18129	252983 5244 2060 4813 56.75 96.5 160 184.17810058594 731.958984375 71795.374725342 36438477.523746
18128	258227 5280 2060 4813 56.75 96.5 160 486.85000610352 486.85000610352 77896.000976562 37923668.550879
18139	263507 4985 2168 4937 58.75 97.75 157 0.973 11.942373956128 500.74514878784 2573.5546385591
18138	268492 4874 2168 4937 58.75 97.75 157 -3.177677154541 2.5 41.23487663269 192.57134058624
18137	273366 5001 2153 4937 58.5 97.75 158 5.6500000953674 16.05838394165 2293.4677791595 34000.44733725
18136	278367 5220 2138 4937 58.25 97.75 159 163.88433837891 731.96975708008 69683.954833984 35074930.437162
18135	283587 5249 2138 4937 58.25 97.75 159 486.85000610352 486.85000610352 77409.150970459 37686645.622436
vector 18226  IntersectionExampleScenario.node[25].veinsmobility  posx  ETV
vector 18227  IntersectionExampleScenario.node[25].veinsmobility  posy  ETV
vector 18228  IntersectionExampleScenario.node[25].veinsmobility  speed  ETV
vector 18229  IntersectionExampleScenario.node[25].veinsmobility  acceleration  ETV
vector 18230  IntersectionExampleScenario.node[25].veinsmobility  co2emission  ETV
vector 18233  IntersectionExampleScenario.node[26].veinsmobility  posx  ETV
vector 18234  IntersectionExampleScenario.node[26].veinsmobility  posy  ETV
vector 18235  IntersectionExampleScenario.node[26].veinsmobility  speed  ETV
18118	289469 5884 1987 5421 55 103 193 0.973 11.90022389248 576.92400094205 3095.2885925944
18117	295353 5655 1987 5421 55 103 193 -8.8833169937134 4 39.869146347046 514.1314865134
18116	301008 5697 1977 5421 54.75 103 194 0 16 2205.6053040028 31862.58294865
18115	306705 6442 1966 5421 54.5 103 195 235.83721923828 486.85000610352 86663.715759277 39548025.082823
18114	313147 6440 1966 5421 54.5 103 195 483.14999389648 785.82187652588 108763.13712311 62583467.736258
vector 18236  IntersectionExampleScenario.node[26].veinsmobility  acceleration  ETV
vector 18237  IntersectionExampleScenario.node[26].veinsmobility  co2emission  ETV
vector 18240  IntersectionExampleScenario.node[27].veinsmobility  posx  ETV
vector 18241  IntersectionExampleScenario.node[27].veinsmobility  posy  ETV
vector 18242  IntersectionExampleScenario.node[27].veinsmobility  speed  ETV
18125	319988 6230 2027 5623 56 105 197 0.973 11.90022389248 588.75109130077 3083.6286678249
18124	326218 6250 2027 5623 56 105 197 -4.5 2.5 40.038900375366 463.31092020096
18123	332468 6354 2016 5623 55.75 105 198 0 16 2293.1950410698 32837.793134699
18122	338822 6585 2005 5623 55.5 105 199 237.71368408203 486.85000610352 88753.994110107 40601336.695595
18121	345407 6567 2005 5623 55.5 105 199 483.1494140625 807.99687957764 112878.21773529 66290500.50329
vector 18243  IntersectionExampleScenario.node[27].veinsmobility  acceleration  ETV
vector 18244  IntersectionExampleScenario.node[27].veinsmobility  co2emission  ETV
vector 18247  IntersectionExampleScenario.node[28].veinsmobility  posx  ETV
vector 18248  IntersectionExampleScenario.node[28].veinsmobility  posy  ETV
18153	352297 5177 2630 5893 66.75 107.5 164 0.973 11.54047740176 533.41700886085 3077.7464703775
18152	357474 4891 2630 5893 66.75 107.5 164 -3.9119071960449 2.5 37.15309715271 297.86445122815
18151	362365 5226 2613 5893 66.5 107.5 165 5.6500000953674 15.5 2220.8645124435 30697.104346535
18150	367591 5510 2596 5893 66.25 107.5 166 486.85000610352 486.85000610352 80817.101013184 39345806.121537
18149	373101 5490 2596 5893 66.25 107.5 166 235.525390625 785.82187652588 86647.572563171 49466130.62321
vector 18254  IntersectionExampleScenario.node[29].veinsmobility  posx  ETV
vector 18255  IntersectionExampleScenario.node[29].veinsmobility  posy  ETV
vector 18249  IntersectionExampleScenario.node[28].veinsmobility  speed  ETV
vector 18250  IntersectionExampleScenario.node[28].veinsmobility  acceleration  ETV
vector 18251  IntersectionExampleScenario.node[28].veinsmobility  co2emission  ETV
vector 18256  IntersectionExampleScenario.node[29].veinsmobility  speed  ETV
vector 18261  IntersectionExampleScenario.node[30].veinsmobility  posx  ETV
vector 18262  IntersectionExampleScenario.node[30].veinsmobility  posy  ETV
vector 18257  IntersectionExampleScenario.node[29].veinsmobility  acceleration  ETV
vector 18258  IntersectionExampleScenario.node[29].veinsmobility  co2emission  ETV
vector 18263  IntersectionExampleScenario.node[30].veinsmobility  speed  ETV
vector 18264  IntersectionExampleScenario.node[30].veinsmobility  acceleration  ETV
vector 18265  IntersectionExampleScenario.node[30].veinsmobility  co2emission  ETV
vector 18268  IntersectionExampleScenario.node[31].veinsmobility  posx  ETV
vector 18269  IntersectionExampleScenario.node[31].veinsmobility  posy  ETV
vector 18270  IntersectionExampleScenario.node[31].veinsmobility  speed  ETV
vector 18271  IntersectionExampleScenario.node[31].veinsmobility  acceleration  ETV
vector 18272  IntersectionExampleScenario.node[31].veinsmobility  co2emission  ETV
18111	380041 7434 1840 6763 51.25 114.75 255 0.973 11.36141391502 609.38420051936 2823.7681906827
18110	387475 7004 1840 6763 51.25 114.75 255 -9.0574893951416 4 36.304327011108 528.87573009063
18109	394479 6970 1829 6763 51 114.75 256 0 15.25 2180.6438598633 29991.465636505
18108	401449 8468 1818 6763 50.75 114.75 257 235.79516601562 483.14999389648 115651.97848511 53164177.868264
18107	409917 8520 1818 6763 50.75 114.75 257 184.17810058594 483.36395263672 108981.48007202 48307652.42697
vector 18275  IntersectionExampleScenario.node[32].veinsmobility  posx  ETV
vector 18276  IntersectionExampleScenario.node[32].veinsmobility  posy  ETV
vector 18277  IntersectionExampleScenario.node[32].veinsmobility  speed  ETV
vector 18282  IntersectionExampleScenario.node[33].veinsmobility  posx  ETV
vector 18283  IntersectionExampleScenario.node[33].veinsmobility  posy  ETV
vector 18278  IntersectionExampleScenario.node[32].veinsmobility  acceleration  ETV
vector 18279  IntersectionExampleScenario.node[32].veinsmobility  co2emission  ETV
vector 18284  IntersectionExampleScenario.node[33].veinsmobility  speed  ETV
18160	419070 5327 3177 7079 75.75 117.75 169 0.97223939240464 11.648172402475 545.16221489377 3095.1300792567
18159	424397 4783 3177 7079 75.75 117.75 169 -3.0945587158203 2.5 38.680875778198 325.89031054952
18158	429180 5364 3160 7079 75.5 117.75 170 5.6500000953674 15.64999961853 2179.6087408066 29677.267670309
18157	434544 5711 3143 7079 75.25 117.75 171 238.41552734375 483.14999389648 74565.155181885 33443222.217786
18156	440255 5695 3143 7079 75.25 117.75 171 184.17810058594 483.31103515625 68248.856323242 28987931.703748
vector 18285  IntersectionExampleScenario.node[33].veinsmobility  acceleration  ETV
vector 18286  IntersectionExampleScenario.node[33].veinsmobility  co2emission  ETV
vector 18289  IntersectionExampleScenario.node[34].veinsmobility  posx  ETV
vector 18290  IntersectionExampleScenario.node[34].veinsmobility  posy  ETV
vector 18291  IntersectionExampleScenario.node[34].veinsmobility  speed  ETV
vector 18292  IntersectionExampleScenario.node[34].veinsmobility  acceleration  ETV
vector 18293  IntersectionExampleScenario.node[34].veinsmobility  co2emission  ETV
vector 18296  IntersectionExampleScenario.node[35].veinsmobility  posx  ETV
vector 18297  IntersectionExampleScenario.node[35].veinsmobility  posy  ETV
vector 18298  IntersectionExampleScenario.node[35].veinsmobility  speed  ETV
vector 18299  IntersectionExampleScenario.node[35].veinsmobility  acceleration  ETV
vector 18300  IntersectionExampleScenario.node[35].veinsmobility  co2emission  ETV
vector 18303  IntersectionExampleScenario.node[36].veinsmobility  posx  ETV
vector 18304  IntersectionExampleScenario.node[36].veinsmobility  posy  ETV
vector 18305  IntersectionExampleScenario.node[36].veinsmobility  speed  ETV
vector 18306  IntersectionExampleScenario.node[36].veinsmobility  acceleration  ETV
vector 18307  IntersectionExampleScenario.node[36].veinsmobility  co2emission  ETV
vector 18310  IntersectionExampleScenario.node[37].veinsmobility  posx  ETV
vector 18311  IntersectionExampleScenario.node[37].veinsmobility  posy  ETV
vector 18312  IntersectionExampleScenario.node[37].veinsmobility  speed  ETV
vector 18313  IntersectionExampleScenario.node[37].veinsmobility  acceleration  ETV
vector 18314  IntersectionExampleScenario.node[37].veinsmobility  co2emission  ETV
vector 18317  IntersectionExampleScenario.node[38].veinsmobility  posx  ETV
vector 18318  IntersectionExampleScenario.node[38].veinsmobility  posy  ETV
vector 18319  IntersectionExampleScenario.node[38].veinsmobility  speed  ETV
vector 18324  IntersectionExampleScenario.node[39].veinsmobility  posx  ETV
vector 18325  IntersectionExampleScenario.node[39].veinsmobility  posy  ETV
vector 18320  IntersectionExampleScenario.node[38].veinsmobility  acceleration  ETV
vector 18321  IntersectionExampleScenario.node[38].veinsmobility  co2emission  ETV
18146	448278 7118 2581 8145 66 125.75 240 0.973 11.450879080643 599.19161242791 2850.9110138287
18145	455396 6547 2581 8145 66 125.75 240 -9.2760667800903 4 36.643835067749 497.43958344813
18144	461943 6823 2566 8145 65.75 125.75 241 0 15.375 2220.083255291 30777.467474595
18143	468766 8061 2551 8145 65.5 125.75 242 184.17810058594 735.25332641602 110661.10385132 54897775.915661
18142	476827 8091 2551 8145 65.5 125.75 242 486.85000610352 486.85000610352 117817.70147705 57359548.683204
vector 18326  IntersectionExampleScenario.node[39].veinsmobility  speed  ETV
vector 18327  IntersectionExampleScenario.node[39].veinsmobility  acceleration  ETV
vector 18328  IntersectionExampleScenario.node[39].veinsmobility  co2emission  ETV
18167	485165 5684 3488 8250 80.25 126.5 186 0.93438186594183 12.26218747632 565.36969642113 3282.8482909961
18166	490849 5836 3488 8250 80.25 126.5 186 -2.1659774780273 2.5000009536743 41.057416915894 337.43898165756
18165	496685 5923 3468 8250 80 126.5 187 2.0172512531281 16.5 2180.7535536289 29781.442702417
18164	502608 6285 3449 8250 79.75 126.5 188 184.17810058594 483.21417236328 76124.468200684 32597838.079445
18163	508893 6298 3449 8250 79.75 126.5 188 486.85000610352 731.7628326416 99299.829086304 53390705.102426
vector 18331  IntersectionExampleScenario.node[40].veinsmobility  posx  ETV
vector 18332  IntersectionExampleScenario.node[40].veinsmobility  posy  ETV
vector 18333  IntersectionExampleScenario.node[40].veinsmobility  speed  ETV
vector 18334  IntersectionExampleScenario.node[40].veinsmobility  acceleration  ETV
vector 18335  IntersectionExampleScenario.node[40].veinsmobility  co2emission  ETV
vector 18338  IntersectionExampleScenario.node[41].veinsmobility  posx  ETV
vector 18339  IntersectionExampleScenario.node[41].veinsmobility  posy  ETV
18181	515746 6185 3568 8716 81.25 129.75 195 0.973 11.810082123732 572.21424694175 3062.1953349828
18180	521931 6220 3568 8716 81.25 129.75 195 -4.5 2.5 38.511121749878 373.16207642687
18179	528151 6234 3547 8716 81 129.75 196 3.7100262641907 15.875 2281.8776147366 30202.06540942
18178	534385 6580 3526 8716 80.75 129.75 197 162.00311279297 483.14999389648 77747.04864502 32817813.198097
18177	540965 6619 3526 8716 80.75 129.75 197 486.85000610352 735.28810119629 104211.73377991 56148166.793985
vector 18340  IntersectionExampleScenario.node[41].veinsmobility  speed  ETV
vector 18341  IntersectionExampleScenario.node[41].veinsmobility  acceleration  ETV
vector 18342  IntersectionExampleScenario.node[41].veinsmobility  co2emission  ETV
18188	547831 5840 3845 8864 84.75 130.75 185 0.973 11.90022389248 586.07544715852 3261.2794329605
18187	553671 5807 3845 8864 84.75 130.75 185 -4.5 2.5 40.208654403687 409.13372054409
18186	559478 5966 3824 8864 84.5 130.75 186 2.7646133899689 16 2293.7945904732 31268.43059914
18185	565444 6269 3803 8864 84.25 130.75 187 163.44683837891 486.87622070312 73534.481231689 31012919.1082
18184	571713 6293 3803 8864 84.25 130.75 187 236.13110351562 486.85000610352 82825.81350708 37695574.060385
18209	578006 4982 4517 8901 93.5 131 151 0.973 11.990504229548 479.97191342524 2613.7218177773
18208	582988 4468 4517 8901 93.5 131 151 -3.2447547912598 2.5 39.869146347046 201.41922718971
18207	587456 4888 4494 8901 93.25 131 152 5.6500000953674 16.125 2212.2037334442 32921.068151754
18206	592344 5135 4473 8901 93 131 153 238.06097412109 785.82187652588 79972.657585144 45844433.356388
18205	597479 5172 4473 8901 93 131 153 483.14999389648 483.14999389648 73921.949066162 35715389.240132
vector 18345  IntersectionExampleScenario.node[42].veinsmobility  posx  ETV
vector 18346  IntersectionExampleScenario.node[42].veinsmobility  posy  ETV
vector 18347  IntersectionExampleScenario.node[42].veinsmobility  speed  ETV
vector 18348  IntersectionExampleScenario.node[42].veinsmobility  acceleration  ETV
vector 18349  IntersectionExampleScenario.node[42].veinsmobility  co2emission  ETV
vector 18352  IntersectionExampleScenario.node[43].veinsmobility  posx  ETV
vector 18353  IntersectionExampleScenario.node[43].veinsmobility  posy  ETV
vector 18354  IntersectionExampleScenario.node[43].veinsmobility  speed  ETV
vector 18355  IntersectionExampleScenario.node[43].veinsmobility  acceleration  ETV
vector 18356  IntersectionExampleScenario.node[43].veinsmobility  co2emission  ETV
18174	603453 6821 3507 9836 80.5 137.75 230 0.973 12.099024792222 616.35857379842 3254.79794963
18173	610274 6373 3507 9836 80.5 137.75 230 -7.8776445388794 4 40.038900375366 513.03881719338
18172	616647 6564 3488 9836 80.25 137.75 231 0 16.27499961853 2205.5864975452 32071.414867027
18171	623211 7808 3468 9836 80 137.75 232 486.85000610352 486.85000610352 112949.20141602 54989319.398774
18170	631019 7782 3468 9836 80 137.75 232 238.29949951172 785.82187652588 119358.31830597 65460720.241637
18202	638801 5886 4454 10100 92.75 139.75 189 0.973 11.648172402475 543.49913109207 2864.697173143
18201	644687 5955 4454 10100 92.75 139.75 189 -2.1501121520996 2.5000009536743 38.341367721558 300.47156497078
18200	650642 6175 4435 10100 92.5 139.75 190 2.0317351818085 15.64999961853 2204.4343626499 29369.554385139
18199	656817 6447 4416 10100 92.25 139.75 191 237.841796875 486.85000610352 84644.949676514 38531291.502653
18198	663264 6457 4416 10100 92.25 139.75 191 483.14999389648 785.82187652588 107752.15630341 62630092.119222
18216	669721 6198 4540 10364 93.75 141.75 193 0.973 11.54047740176 554.30072600805 2781.1910676168
18215	675919 6032 4540 10364 93.75 141.75 193 -4.5 2.5 37.15309715271 353.22196134144
18214	681951 6328 4517 10364 93.5 141.75 194 3.551388502121 15.5 2311.8411660194 30709.234099511
18213	688279 6617 4494 10364 93.25 141.75 195 486.85000610352 486.85000610352 94935.751190186 46219471.046384
18212	694896 6607 4494 10364 93.25 141.75 195 235.18566894531 807.99687957764 103923.373703 60147829.06694
vector 18359  IntersectionExampleScenario.node[44].veinsmobility  posx  ETV
vector 18360  IntersectionExampleScenario.node[44].veinsmobility  posy  ETV
vector 18361  IntersectionExampleScenario.node[44].veinsmobility  speed  ETV
vector 18362  IntersectionExampleScenario.node[44].veinsmobility  acceleration  ETV
vector 18363  IntersectionExampleScenario.node[44].veinsmobility  co2emission  ETV
18230	701904 5391 5327 10637 102 143.75 168 0.973 11.54047740176 503.90660104475 2641.2205254941
18229	707295 5315 5327 10637 102 143.75 168 -2.6812934875488 2.5000019073486 38.680875778198 224.33447950393
18228	712610 5535 5304 10637 101.75 143.75 169 5.6500000953674 15.5 2210.5807847977 30111.114819398
18227	718145 5801 5281 10637 101.5 143.75 170 486.85000610352 486.85000610352 82764.501037598 40293897.835309
18226	723946 5784 5281 10637 101.5 143.75 170 238.32275390625 785.82187652588 89430.049964905 51176490.059888
vector 18366  IntersectionExampleScenario.node[45].veinsmobility  posx  ETV
vector 18367  IntersectionExampleScenario.node[45].veinsmobility  posy  ETV
vector 18373  IntersectionExampleScenario.node[46].veinsmobility  posx  ETV
vector 18374  IntersectionExampleScenario.node[46].veinsmobility  posy  ETV
vector 18380  IntersectionExampleScenario.node[47].veinsmobility  posx  ETV
vector 18381  IntersectionExampleScenario.node[47].veinsmobility  posy  ETV
vector 18368  IntersectionExampleScenario.node[45].veinsmobility  speed  ETV
vector 18369  IntersectionExampleScenario.node[45].veinsmobility  acceleration  ETV
vector 18370  IntersectionExampleScenario.node[45].veinsmobility  co2emission  ETV
vector 18375  IntersectionExampleScenario.node[46].veinsmobility  speed  ETV
vector 18382  IntersectionExampleScenario.node[47].veinsmobility  speed  ETV
vector 18376  IntersectionExampleScenario.node[46].veinsmobility  acceleration  ETV
vector 18377  IntersectionExampleScenario.node[46].veinsmobility  co2emission  ETV
vector 18383  IntersectionExampleScenario.node[47].veinsmobility  acceleration  ETV
vector 18384  IntersectionExampleScenario.node[47].veinsmobility  co2emission  ETV
18265	730933 5187 6050 11290 108.75 148.25 159 0.973 11.810082123732 517.7496493314 3110.5317557221
18264	736120 5081 6050 11290 108.75 148.25 159 -3.5069274902344 2.5 38.850629806519 306.59739635184
18263	741201 5139 6017 11290 108.5 148.25 160 5.6500000953674 15.875 2182.438662529 31174.841259177
18262	746340 5493 5984 11290 108.25 148.25 161 486.85000610352 732.68367004395 86477.248245239 47363706.966809
18261	751833 5502 5984 11290 108.25 148.25 161 486.68978881836 785.82187652588 92177.839759827 54514113.190682
18195	757335 7121 4365 11474 91.5 149.75 234 0.973 11.200708441096 588.32318074858 2763.2513108766
18194	764456 6521 4365 11474 91.5 149.75 234 -8.8106384277344 4 35.964826583862 478.72930630796
18193	770977 6867 4347 11474 91.25 149.75 235 0 15.02499961853 2205.9377574921 30257.20593777
18192	777844 8032 4328 11474 91 149.75 236 483.14999389648 483.14999389648 114023.39855957 55090404.318113
18191	785876 7994 4328 11474 91 149.75 236 184.17810058594 732.29058837891 107642.24998474 53361641.035156
18223	793870 7375 4613 11619 94.5 151 227 0.973 11.36141391502 590.31220316545 2807.6867160112
18222	801245 7131 4613 11619 94.5 151 227 -4.5 2.5 37.15309715271 429.58238954455
18221	808376 7478 4588 11619 94.25 151 228 0 15.25 2235.0979988147 30484.610288062
18220	815854 7802 4563 11619 94 151 229 236.78051757812 483.14999389648 102301.68899536 46764512.210132
18219	823656 7778 4563 11619 94 151 229 171.40313720703 483.14999389648 94290.256500244 41011493.75211
vector 18387  IntersectionExampleScenario.node[48].veinsmobility  posx  ETV
vector 18388  IntersectionExampleScenario.node[48].veinsmobility  posy  ETV
vector 18389  IntersectionExampleScenario.node[48].veinsmobility  speed  ETV
18272	831666 5063 6676 11784 114 152.5 155 0.973 12.099024792222 544.57299960604 3319.9334011636
18271	836729 4932 6676 11784 114 152.5 155 -3.3424873352051 2.5 41.057416915894 280.16587122818
18270	841661 5130 6647 11784 113.75 152.5 156 5.6500000953674 16.27499961853 2220.8112230301 32484.247915085
18269	846791 5393 6618 11784 113.5 152.5 157 483.14999389648 483.14999389648 75854.549041748 36649124.906541
18268	852184 5365 6618 11784 113.5 152.5 157 184.17810058594 734.14334106445 70178.264389038 35417744.196203
vector 18390  IntersectionExampleScenario.node[48].veinsmobility  acceleration  ETV
vector 18391  IntersectionExampleScenario.node[48].veinsmobility  co2emission  ETV
vector 18394  IntersectionExampleScenario.node[49].veinsmobility  posx  ETV
vector 18395  IntersectionExampleScenario.node[49].veinsmobility  posy  ETV
18237	857872 6980 5446 12532 103.25 160 228 0.973 11.810082123732 605.28846839623 3088.8635652817
18236	864852 6645 5446 12532 103.25 160 228 -7.3504467010498 4 39.529638290405 485.11540604207
18235	871497 6657 5421 12532 103 160 229 0 15.875 2178.9842691422 31129.967469933
18234	878154 7885 5396 12532 102.75 160 230 184.17810058594 483.36395263672 96602.77142334 42568725.292648
18233	886039 7836 5396 12532 102.75 160 230 486.85000610352 733.38047790527 120026.45906067 63673001.940629
vector 18396  IntersectionExampleScenario.node[49].veinsmobility  speed  ETV
vector 18397  IntersectionExampleScenario.node[49].veinsmobility  acceleration  ETV
vector 18398  IntersectionExampleScenario.node[49].veinsmobility  co2emission  ETV
vector 18401  IntersectionExampleScenario.node[50].veinsmobility  posx  ETV
vector 18402  IntersectionExampleScenario.node[50].veinsmobility  posy  ETV
18258	894276 6677 5984 12670 108.25 161.5 214 0.973 12.099024792222 599.6051522577 3076.987151889
18257	900953 6557 5984 12670 108.25 161.5 214 -7.8776445388794 4 40.038900375366 505.22138699323
18256	907510 6718 5953 12670 108 161.5 215 0 16.27499961853 2190.9328645468 31562.695281793
18255	914228 7416 5922 12670 107.75 161.5 216 483.04235839844 785.82187652588 119172.29236603 67731649.432629
18254	921644 7428 5922 12670 107.75 161.5 216 483.14999389648 732.97088623047 112561.17674255 59707025.432871
vector 18403  IntersectionExampleScenario.node[50].veinsmobility  speed  ETV
vector 18404  IntersectionExampleScenario.node[50].veinsmobility  acceleration  ETV
vector 18405  IntersectionExampleScenario.node[50].veinsmobility  co2emission  ETV
18279	929319 5741 7050 12744 117.5 162.25 180 0.96333723109819 12.099024792222 557.96782031188 3194.1259799048
18278	935060 5705 7050 12744 117.5 162.25 180 -3.5173988342285 2.5000019073486 40.208654403687 339.76743341302
18277	940765 5918 7023 12744 117.25 162.25 181 3.1358411312103 16.27499961853 2179.6111943722 29620.200289151
18276	946683 6256 6996 12744 117 162.25 182 486.85000610352 785.82187652588 103245.55995941 60327124.779621
18275	952939 6272 6996 12744 117 162.25 182 238.21185302734 483.14999389648 80059.007049561 36156145.951393
vector 18408  IntersectionExampleScenario.node[51].veinsmobility  posx  ETV
vector 18409  IntersectionExampleScenario.node[51].veinsmobility  posy  ETV
vector 18410  IntersectionExampleScenario.node[51].veinsmobility  speed  ETV
vector 18411  IntersectionExampleScenario.node[51].veinsmobility  acceleration  ETV
vector 18412  IntersectionExampleScenario.node[51].veinsmobility  co2emission  ETV
18244	959612 7724 5650 12934 105.25 164.25 237 0.973 11.810082123732 640.20182271752 3184.5287514273
18243	967336 7448 5650 12934 105.25 164.25 237 -20.558797836304 4 39.869146347046 953.8049275286
18242	974784 7761 5623 12934 105 164.25 238 0 15.875 2252.6798232542 31858.607459065
18241	982545 8178 5596 12934 104.75 164.25 239 166.078125 483.22052001953 98868.705688477 43187864.037978
18240	990723 8221 5596 12934 104.75 164.25 239 486.85000610352 733.10684204102 124347.83900452 65736207.732891
vector 18415  IntersectionExampleScenario.node[52].veinsmobility  posx  ETV
vector 18416  IntersectionExampleScenario.node[52].veinsmobility  posy  ETV
18251	999098 7220 5953 12959 108 164.5 227 0.973 11.648172402475 595.84163189239 2957.2033161683
18250	1006318 7378 5953 12959 108 164.5 227 -3.935950756073 2.5 38.171613693237 360.11713838726
18249	1013696 7628 5922 12959 107.75 164.5 228 0 15.64999961853 2305.4090922475 31070.63126009
18248	1021324 7868 5893 12959 107.5 164.5 229 160.90466308594 732.4786529541 100971.29290771 49202073.53092
18247	1029192 7889 5893 12959 107.5 164.5 229 486.85000610352 486.85000610352 111488.65139771 54278250.613445
vector 18417  IntersectionExampleScenario.node[52].veinsmobility  speed  ETV
vector 18418  IntersectionExampleScenario.node[52].veinsmobility  acceleration  ETV
vector 18419  IntersectionExampleScenario.node[52].veinsmobility  co2emission  ETV
18314	1037328 5698 7668 13121 122.25 166 176 0.973 11.36141391502 532.65877530556 2854.9680597042
18313	1043026 5640 7668 13121 122.25 166 176 -4.5 2.5000019073486 37.492597579956 372.94591790649
18312	1048666 5801 7631 13121 122 166 177 3.8956701755524 15.452998161316 2073.0972805023 26958.264526023
18311	1054467 6135 7594 13121 121.75 166 178 486.82858276367 757.21720123291 99598.19317627 57099612.7937
18310	1060602 6153 7594 13121 121.75 166 178 235.1884765625 483.14999389648 77593.076599121 34812693.55899
vector 18422  IntersectionExampleScenario.node[53].veinsmobility  posx  ETV
vector 18423  IntersectionExampleScenario.node[53].veinsmobility  posy  ETV
vector 18424  IntersectionExampleScenario.node[53].veinsmobility  speed  ETV
vector 18425  IntersectionExampleScenario.node[53].veinsmobility  acceleration  ETV
vector 18426  IntersectionExampleScenario.node[53].veinsmobility  co2emission  ETV
18293	1067156 6391 7228 13375 119 168.25 198 0.973 11.00486315618 608.62056187826 3183.33636472
18292	1073547 6388 7228 13375 119 168.25 198 -4.5 2.5 34.267293930054 468.36448005931
18291	1079935 6617 7197 13375 118.75 168.25 199 4.3770189285278 14.75 2285.7042813301 28097.841951529
18290	1086552 6897 7166 13375 118.5 168.25 200 483.14999389648 806.11563110352 116779.30016327 70622477.768649
18289	1093449 6892 7166 13375 118.5 168.25 200 483.14999389648 733.19802856445 105607.37257385 56859964.890037
18307	1100341 6317 7524 13510 121.25 169.5 194 0.973 12.317303361277 626.9693581517 3262.9107724426
18306	1106658 6336 7524 13510 121.25 169.5 194 -4.5 2.5 43.703527450562 382.24078565713
18305	1112994 6483 7489 13510 121 169.5 195 5.6500000953674 16.575881958008 2320.0164775848 29494.040761999
18304	1119477 6769 7454 13510 120.75 169.5 196 483.1452331543 812.85469818115 114663.29815674 69520482.293698
18303	1126246 6782 7454 13510 120.75 169.5 196 483.14999389648 734.58908081055 103453.10969543 55688829.290351
18321	1133028 6075 8145 13740 125.75 171.75 185 0.973 11.36141391502 559.98774037076 2945.7771239016
18320	1139103 5967 8145 13740 125.75 171.75 185 -4.5 2.5 36.98334312439 357.22168129634
18319	1145070 6132 8111 13740 125.5 171.75 186 5.6500000953674 15.25 2262.7937150002 29329.877249425
18318	1151202 6475 8076 13740 125.25 171.75 187 486.81240844727 805.76873779297 108214.69415283 64718747.464018
18317	1157677 6485 8076 13740 125.25 171.75 187 236.65216064453 483.14999389648 81973.02355957 36931130.11451
18286	1164162 6783 7108 13835 118 172.75 220 0.973 12.234050430356 638.01245981585 3475.8856142752
18285	1170945 6455 7108 13835 118 172.75 220 -8.3547468185425 4 43.24489402771 534.12253996568
18284	1177400 6612 7079 13835 117.75 172.75 221 0 16.461223602295 2204.7052106857 32313.344124616
18283	1184012 7685 7050 13835 117.5 172.75 222 486.85000610352 486.85000610352 108080.70135498 52619090.114344
18282	1191697 7679 7050 13835 117.5 172.75 222 238.64172363281 785.82187652588 114197.99938202 62790547.844561
vector 18429  IntersectionExampleScenario.node[54].veinsmobility  posx  ETV
vector 18430  IntersectionExampleScenario.node[54].veinsmobility  posy  ETV
vector 18431  IntersectionExampleScenario.node[54].veinsmobility  speed  ETV
vector 18432  IntersectionExampleScenario.node[54].veinsmobility  acceleration  ETV
vector 18433  IntersectionExampleScenario.node[54].veinsmobility  co2emission  ETV
vector 18436  IntersectionExampleScenario.node[55].veinsmobility  posx  ETV
vector 18437  IntersectionExampleScenario.node[55].veinsmobility  posy  ETV
vector 18438  IntersectionExampleScenario.node[55].veinsmobility  speed  ETV
vector 18439  IntersectionExampleScenario.node[55].veinsmobility  acceleration  ETV
vector 18440  IntersectionExampleScenario.node[55].veinsmobility  co2emission  ETV
18335	1200178 6237 8359 14124 127.25 175.75 195 0.973 11.200708441096 541.60659554815 2725.1425441286
18334	1206415 6564 8359 14124 127.25 175.75 195 -2.1334800720215 2.5 36.98334312439 287.24791116062
18333	1212979 6683 8322 14124 127 175.75 196 1.8801665306091 15.459409713745 2209.665235281 29055.779403315
18332	1219662 6847 8285 14124 126.75 175.75 197 486.85000610352 486.85000610352 95909.451202393 46693516.90327
18331	1226509 6822 8285 14124 126.75 175.75 197 238.01403808594 785.82187652588 102711.9419632 57745732.509129
18356	1233331 5723 9526 14424 135.5 178.75 174 0.973 11.200708441096 502.71657944374 2567.528085035
18355	1239054 5634 9526 14424 135.5 178.75 174 -2.1524238586426 2.5 35.625318527222 228.6020844202
18354	1244688 5937 9491 14424 135.25 178.75 175 5.6500000953674 15.02499961853 2221.2792615891 29264.987168661
18353	1250625 6144 9456 14424 135 178.75 176 486.85000610352 486.85000610352 85685.601074219 41716035.405967
18352	1256769 6123 9456 14424 135 178.75 176 235.2216796875 785.82187652588 91880.617408752 52298452.008093
vector 18443  IntersectionExampleScenario.node[56].veinsmobility  posx  ETV
vector 18444  IntersectionExampleScenario.node[56].veinsmobility  posy  ETV
vector 18445  IntersectionExampleScenario.node[56].veinsmobility  speed  ETV
vector 18446  IntersectionExampleScenario.node[56].veinsmobility  acceleration  ETV
vector 18447  IntersectionExampleScenario.node[56].veinsmobility  co2emission  ETV
vector 18450  IntersectionExampleScenario.node[57].veinsmobility  posx  ETV
vector 18451  IntersectionExampleScenario.node[57].veinsmobility  posy  ETV
vector 18452  IntersectionExampleScenario.node[57].veinsmobility  speed  ETV
vector 18453  IntersectionExampleScenario.node[57].veinsmobility  acceleration  ETV
vector 18454  IntersectionExampleScenario.node[57].veinsmobility  co2emission  ETV
vector 18457  IntersectionExampleScenario.node[58].veinsmobility  posx  ETV
vector 18458  IntersectionExampleScenario.node[58].veinsmobility  posy  ETV
vector 18459  IntersectionExampleScenario.node[58].veinsmobility  speed  ETV
18300	1263926 7897 7388 14979 120.25 184.75 259 0.973 11.36141391502 611.65313516444 2813.137246876
18299	1271823 7062 7388 14979 120.25 184.75 259 -21.743194580078 4 35.964826583862 864.43089060899
18298	1278885 7412 7355 14979 120 184.75 260 0 15.25 2176.1079645157 29898.627095747
18297	1286297 8986 7321 14979 119.75 184.75 261 236.85040283203 483.14999389648 117611.48257446 54113870.10392
18296	1295283 9026 7321 14979 119.75 184.75 261 184.17810058594 483.36395263672 110833.95278931 49172134.697464
vector 18460  IntersectionExampleScenario.node[58].veinsmobility  acceleration  ETV
vector 18461  IntersectionExampleScenario.node[58].veinsmobility  co2emission  ETV
vector 18464  IntersectionExampleScenario.node[59].veinsmobility  posx  ETV
vector 18465  IntersectionExampleScenario.node[59].veinsmobility  posy  ETV
vector 18466  IntersectionExampleScenario.node[59].veinsmobility  speed  ETV
vector 18467  IntersectionExampleScenario.node[59].veinsmobility  acceleration  ETV
vector 18468  IntersectionExampleScenario.node[59].veinsmobility  co2emission  ETV
18328	1304879 7889 8215 15179 126.25 187 244 0.973 11.200708441096 596.18226941426 2765.5484949868
18327	1312768 8201 8215 15179 126.25 187 244 -3.830087184906 2.5 37.32285118103 331.53606612719
18326	1320969 8255 8180 15179 126 187 245 0 15.212128639221 2188.1041773241 28836.154800963
18325	1329224 8549 8145 15179 125.75 187 246 235.67730712891 483.14999389648 110457.22540283 50691502.320135
18324	1337773 8524 8145 15179 125.75 187 246 184.17810058594 483.15866088867 102929.42169189 45046987.037266
18370	1346297 5725 10744 15268 144.5 188 175 0.973 11.90022389248 552.10247264874 3127.7861889537
18369	1352022 5692 10744 15268 144.5 188 175 -3.7561645507812 2.5000019073486 39.529638290405 323.09485164296
18368	1357714 5855 10705 15268 144.25 188 176 4.6726422309875 16 2210.2689428329 30049.201634137
18367	1363569 6186 10670 15268 144 188 177 483.14999389648 733.14614868164 93770.956390381 50667059.157265
18366	1369755 6172 10670 15268 144 188 177 184.17810058594 486.85000610352 71058.299438477 30312653.075944
18384	1375927 6223 10783 15499 144.75 190.75 185 0.973 11.450879080643 554.08328898802 2782.1845253551
18383	1382150 6094 10783 15499 144.75 190.75 185 -4.5 2.5 37.492597579956 359.22587512563
18382	1388244 6225 10744 15499 144.5 190.75 186 4.1189775466919 15.417924880981 2307.2022619247 30662.213755311
18381	1394469 6545 10705 15499 144.25 190.75 187 483.14999389648 733.48368835449 98890.155349731 53330434.336312
18380	1401014 6531 10705 15499 144.25 190.75 187 159.76721191406 486.85000610352 73052.164703369 30782869.677671
vector 18471  IntersectionExampleScenario.node[60].veinsmobility  posx  ETV
vector 18472  IntersectionExampleScenario.node[60].veinsmobility  posy  ETV
vector 18473  IntersectionExampleScenario.node[60].veinsmobility  speed  ETV
vector 18474  IntersectionExampleScenario.node[60].veinsmobility  acceleration  ETV
vector 18475  IntersectionExampleScenario.node[60].veinsmobility  co2emission  ETV
18342	1407946 7767 8790 15836 130.25 194.75 259 0.973 11.90022389248 651.42897267673 3253.5181673163
18341	1415713 7404 8790 15836 130.25 194.75 259 -32.684566497803 4 40.378400802612 1443.3194126904
18340	1423117 7568 8753 15836 130 194.75 260 0 16 2246.319483757 30672.623977086
18339	1430685 9084 8716 15836 129.75 194.75 261 483.14999389648 798.28015136719 143710.66555023 81462155.851006
18338	1439769 9096 8716 15836 129.75 194.75 261 483.14999389648 731.78149414062 134160.58079529 70047058.397083
vector 18478  IntersectionExampleScenario.node[61].veinsmobility  posx  ETV
vector 18479  IntersectionExampleScenario.node[61].veinsmobility  posy  ETV
vector 18480  IntersectionExampleScenario.node[61].veinsmobility  speed  ETV
vector 18481  IntersectionExampleScenario.node[61].veinsmobility  acceleration  ETV
vector 18482  IntersectionExampleScenario.node[61].veinsmobility  co2emission  ETV
18349	1449266 7864 9390 16041 134.5 197 251 0.973 11.36141391502 600.3592578356 2788.8979258307
18348	1457130 7421 9390 16041 134.5 197 251 -4.5 2.5 36.813589096069 460.2373664845
18347	1464551 7521 9357 16041 134.25 197 252 0 15.25 2220.9940080997 30090.605737979
18346	1472072 8814 9323 16041 134 197 253 486.85000610352 796.41195678711 139854.06788635 79524954.813478
18345	1480886 8830 9323 16041 134 197 253 237.89349365234 483.14999389648 113928.31741333 52386009.862718
18391	1489716 5954 11813 16110 152.75 197.75 181 0.973 11.810082123732 560.24683101366 3035.086517829
18390	1495670 5607 11813 16110 152.75 197.75 181 -8.1522989273071 4 39.529638290405 509.60942594079
18389	1501277 5834 11784 16110 152.5 197.75 182 0 15.875 2176.2121751308 31073.900178546
18388	1507111 6379 11755 16110 152.25 197.75 183 184.17810058594 483.24322509766 74426.894592285 32106318.798392
18387	1513490 6403 11755 16110 152.25 197.75 183 486.85000610352 732.11436462402 97060.53074646 52430983.639297
vector 18485  IntersectionExampleScenario.node[62].veinsmobility  posx  ETV
vector 18486  IntersectionExampleScenario.node[62].veinsmobility  posy  ETV
vector 18492  IntersectionExampleScenario.node[63].veinsmobility  posx  ETV
vector 18493  IntersectionExampleScenario.node[63].veinsmobility  posy  ETV
vector 18487  IntersectionExampleScenario.node[62].veinsmobility  speed  ETV
vector 18494  IntersectionExampleScenario.node[63].veinsmobility  speed  ETV
vector 18488  IntersectionExampleScenario.node[62].veinsmobility  acceleration  ETV
vector 18489  IntersectionExampleScenario.node[62].veinsmobility  co2emission  ETV
vector 18495  IntersectionExampleScenario.node[63].veinsmobility  acceleration  ETV
vector 18496  IntersectionExampleScenario.node[63].veinsmobility  co2emission  ETV
vector 18499  IntersectionExampleScenario.node[64].veinsmobility  posx  ETV
vector 18500  IntersectionExampleScenario.node[64].veinsmobility  posy  ETV
18363	1520849 7352 10533 16333 143 200 229 0.973 11.200708441096 588.83019179374 2753.4021834611
18362	1528201 7763 10533 16333 143 200 229 -4.5 2.5 37.32285118103 361.90788695763
18361	1535964 8009 10498 16333 142.75 200 230 0 15.08825302124 2201.2825030461 28459.301301939
18360	1543973 8058 10463 16333 142.5 200 231 483.01293945312 785.82187652588 128477.73189545 73397513.565154
18359	1552031 8071 10463 16333 142.5 200 231 483.14999389648 732.06440734863 120082.13183594 63517226.718081
vector 18506  IntersectionExampleScenario.node[65].veinsmobility  posx  ETV
vector 18507  IntersectionExampleScenario.node[65].veinsmobility  posy  ETV
vector 18501  IntersectionExampleScenario.node[64].veinsmobility  speed  ETV
vector 18513  IntersectionExampleScenario.node[66].veinsmobility  posx  ETV
vector 18514  IntersectionExampleScenario.node[66].veinsmobility  posy  ETV
vector 18502  IntersectionExampleScenario.node[64].veinsmobility  acceleration  ETV
vector 18503  IntersectionExampleScenario.node[64].veinsmobility  co2emission  ETV
vector 18508  IntersectionExampleScenario.node[65].veinsmobility  speed  ETV
vector 18520  IntersectionExampleScenario.node[67].veinsmobility  posx  ETV
vector 18521  IntersectionExampleScenario.node[67].veinsmobility  posy  ETV
vector 18509  IntersectionExampleScenario.node[65].veinsmobility  acceleration  ETV
vector 18510  IntersectionExampleScenario.node[65].veinsmobility  co2emission  ETV
vector 18515  IntersectionExampleScenario.node[66].veinsmobility  speed  ETV
vector 18516  IntersectionExampleScenario.node[66].veinsmobility  acceleration  ETV
vector 18517  IntersectionExampleScenario.node[66].veinsmobility  co2emission  ETV
vector 18522  IntersectionExampleScenario.node[67].veinsmobility  speed  ETV
vector 18523  IntersectionExampleScenario.node[67].veinsmobility  acceleration  ETV
vector 18524  IntersectionExampleScenario.node[67].veinsmobility  co2emission  ETV
18377	1561552 7379 10783 16531 144.75 201.5 228 0.973 11.200708441096 610.88442272595 2851.9296713683
18376	1568931 7737 10783 16531 144.75 201.5 228 -4.5 2.5 40.038900375366 407.16088095442
18375	1576668 7812 10744 16531 144.5 201.5 229 0 15.697360038757 2283.4699164033 30359.492631235
18374	1584480 8032 10705 16531 144.25 201.5 230 482.84829711914 805.05782318115 130019.59703064 75692226.665918
18373	1592512 8041 10705 16531 144.25 201.5 230 483.14999389648 733.18687438965 119326.51777649 62979709.013205
vector 18527  IntersectionExampleScenario.node[68].veinsmobility  posx  ETV
vector 18528  IntersectionExampleScenario.node[68].veinsmobility  posy  ETV
18412	1600707 5564 12909 16939 164 204.5 163 0.973 11.200708441096 474.15464992028 2360.3789174587
18411	1606271 5045 12909 16939 164 204.5 163 -3.280574798584 2.5 35.455564498901 212.27776188622
18410	1611316 5466 12884 16939 163.75 204.5 164 5.6500000953674 15.02499961853 2209.5037498474 30505.908078386
18409	1616782 5744 12859 16939 163.5 204.5 165 184.17810058594 486.85000610352 65775.874023438 28041905.758651
18408	1622526 5768 12859 16939 163.5 204.5 165 236.24621582031 486.85000610352 71484.463897705 31974121.87146
vector 18529  IntersectionExampleScenario.node[68].veinsmobility  speed  ETV
vector 18530  IntersectionExampleScenario.node[68].veinsmobility  acceleration  ETV
vector 18531  IntersectionExampleScenario.node[68].veinsmobility  co2emission  ETV
18398	1628541 6351 12578 17485 160.5 208.75 194 0.973 11.200708441096 546.45044376069 2665.0101904014
18397	1634892 5876 12578 17485 160.5 208.75 194 -8.6810245513916 4 36.134572982788 467.99787660457
18396	1640768 6224 12555 17485 160.25 208.75 195 0 15.02499961853 2196.9566392899 30075.092351361
18395	1646992 6857 12532 17485 160 208.75 196 237.55419921875 486.85000610352 86765.671783447 39466292.840522
18394	1653849 6845 12532 17485 160 208.75 196 483.14999389648 785.82187652588 109698.43454742 63346173.159495
vector 18534  IntersectionExampleScenario.node[69].veinsmobility  posx  ETV
vector 18535  IntersectionExampleScenario.node[69].veinsmobility  posy  ETV
vector 18536  IntersectionExampleScenario.node[69].veinsmobility  speed  ETV
vector 18537  IntersectionExampleScenario.node[69].veinsmobility  acceleration  ETV
vector 18538  IntersectionExampleScenario.node[69].veinsmobility  co2emission  ETV
vector 18541  IntersectionExampleScenario.node[70].veinsmobility  posx  ETV
vector 18542  IntersectionExampleScenario.node[70].veinsmobility  posy  ETV
vector 18543  IntersectionExampleScenario.node[70].veinsmobility  speed  ETV
vector 18544  IntersectionExampleScenario.node[70].veinsmobility  acceleration  ETV
vector 18545  IntersectionExampleScenario.node[70].veinsmobility  co2emission  ETV
vector 18548  IntersectionExampleScenario.node[71].veinsmobility  posx  ETV
vector 18549  IntersectionExampleScenario.node[71].veinsmobility  posy  ETV
vector 18550  IntersectionExampleScenario.node[71].veinsmobility  speed  ETV
vector 18551  IntersectionExampleScenario.node[71].veinsmobility  acceleration  ETV
vector 18552  IntersectionExampleScenario.node[71].veinsmobility  co2emission  ETV
18405	1661897 7083 12720 18638 162 218.5 227 0.973 12.099024792222 641.92139938104 3523.8092884306
18404	1668980 6245 12720 18638 162 218.5 227 -8.2853965759277 4 41.396924972534 561.77444701612
18403	1675225 6779 12695 18638 161.75 218.5 228 0 16.27499961853 2205.6966319084 32524.994239879
18402	1682004 8015 12670 18638 161.5 218.5 229 483.14999389648 483.14999389648 110641.34860229 53456366.901897
18401	1690019 7974 12670 18638 161.5 218.5 229 184.17810058594 731.91882324219 104228.78076172 51444012.917682
18426	1697993 7175 13206 18870 166.75 220.5 216 0.973 11.810082123732 588.66273992496 3038.8093433973
18425	1705168 7172 13206 18870 166.75 220.5 216 -4.5 2.5000000447035 39.699392318726 450.45693633762
18424	1712340 7279 13177 18870 166.5 220.5 217 0 15.875 2088.6299686851 29259.118056892
18423	1719619 7622 13148 18870 166.25 220.5 218 236.11267089844 483.14999389648 97265.135040283 44421847.800125
18422	1727241 7600 13148 18870 166.25 220.5 218 208.5546875 483.14999389648 92386.302490234 40690926.972133
vector 18555  IntersectionExampleScenario.node[72].veinsmobility  posx  ETV
vector 18556  IntersectionExampleScenario.node[72].veinsmobility  posy  ETV
vector 18557  IntersectionExampleScenario.node[72].veinsmobility  speed  ETV
vector 18558  IntersectionExampleScenario.node[72].veinsmobility  acceleration  ETV
vector 18559  IntersectionExampleScenario.node[72].veinsmobility  co2emission  ETV
vector 18562  IntersectionExampleScenario.node[73].veinsmobility  posx  ETV
vector 18563  IntersectionExampleScenario.node[73].veinsmobility  posy  ETV
vector 18564  IntersectionExampleScenario.node[73].veinsmobility  speed  ETV
vector 18569  IntersectionExampleScenario.node[74].veinsmobility  posx  ETV
vector 18570  IntersectionExampleScenario.node[74].veinsmobility  posy  ETV
vector 18565  IntersectionExampleScenario.node[73].veinsmobility  acceleration  ETV
vector 18566  IntersectionExampleScenario.node[73].veinsmobility  co2emission  ETV
vector 18576  IntersectionExampleScenario.node[75].veinsmobility  posx  ETV
vector 18577  IntersectionExampleScenario.node[75].veinsmobility  posy  ETV
vector 18571  IntersectionExampleScenario.node[74].veinsmobility  speed  ETV
18419	1736029 7613 13013 19186 165 223 233 0.973 11.450879080643 613.73330962362 2966.9661926745
18418	1743642 7738 13013 19186 165 223 233 -4.1795349121094 2.5 38.341367721558 413.93685860844
18417	1751380 7915 12986 19186 164.75 223 234 0 15.541436195374 2250.2646917775 29355.94203904
18416	1759295 8214 12959 19186 164.5 223 235 483.14999389648 731.72927856445 121853.88075256 64267177.655423
18415	1767509 8191 12959 19186 164.5 223 235 171.40313720703 486.87680053711 95196.57220459 40926377.432632
vector 18572  IntersectionExampleScenario.node[74].veinsmobility  acceleration  ETV
vector 18573  IntersectionExampleScenario.node[74].veinsmobility  co2emission  ETV
vector 18578  IntersectionExampleScenario.node[75].veinsmobility  speed  ETV
vector 18583  IntersectionExampleScenario.node[76].veinsmobility  posx  ETV
vector 18584  IntersectionExampleScenario.node[76].veinsmobility  posy  ETV
vector 18579  IntersectionExampleScenario.node[75].veinsmobility  acceleration  ETV
vector 18580  IntersectionExampleScenario.node[75].veinsmobility  co2emission  ETV
vector 18585  IntersectionExampleScenario.node[76].veinsmobility  speed  ETV
vector 18586  IntersectionExampleScenario.node[76].veinsmobility  acceleration  ETV
vector 18587  IntersectionExampleScenario.node[76].veinsmobility  co2emission  ETV
18433	1776517 6671 13977 19696 174.25 226.5 210 0.973 11.200708441096 537.31055294859 2591.6615194511
18432	1783188 6851 13977 19696 174.25 226.5 210 -2.3425805568695 2.5000009536743 35.625318527222 302.24735004098
18431	1790039 7096 13952 19696 174 226.5 211 0 15.02499961853 2210.5108946189 27894.548074446
18430	1797135 7415 13927 19696 173.75 226.5 212 483.14999389648 733.92279052734 111260.08808899 59499865.070423
18429	1804550 7381 13927 19696 173.75 226.5 212 184.17810058594 486.85000610352 86384.131011963 37096680.25355
18440	1811931 7053 14074 20037 175.25 229 216 0.973 11.36141391502 589.75218803925 2925.794971839
18439	1818984 7163 14074 20037 175.25 229 216 -4.5 2.5000019073486 35.964826583862 453.18485293839
18438	1826147 7276 14049 20037 175 229 217 1.8802671432495 15.25 2272.2185521126 28728.871923729
18437	1833423 7626 14024 20037 174.75 229 218 236.89459228516 483.14999389648 96841.261016846 44080521.900668
18436	1841049 7606 14024 20037 174.75 229 218 162.00311279297 483.14999389648 86604.753692627 36605553.468805
18461	1848655 5801 15002 20070 185 229.25 178 0.973 12.553400930962 584.96384948228 3472.135105827
18460	1854456 5494 15002 20070 185 229.25 178 -7.4028387069702 4 42.754949569702 523.01398897866
18459	1859950 5659 14979 20070 184.75 229.25 179 0 16.89999961853 2170.2815864086 32330.657024257
18458	1865609 6279 14956 20070 184.5 229.25 180 486.63604736328 785.82187652588 101217.08075714 58720281.423413
18457	1871888 6229 14956 20070 184.5 229.25 180 238.89868164062 483.14999389648 79421.169250488 35948179.126661
18475	1878117 5532 15668 20535 192.75 233 162 0.973 11.200708441096 475.66473666293 2370.3312552957
18474	1883649 5119 15668 20535 192.75 233 162 -3.5964469909668 2.5 35.795072555542 221.42960776537
18473	1888768 5524 15647 20535 192.5 233 163 5.6500000953674 15.02499961853 2208.0642824173 30664.591118404
18472	1894292 5718 15625 20535 192.25 233 164 184.17810058594 487.02789306641 65339.301696777 27845407.792223
18471	1900010 5729 15625 20535 192.25 233 164 235.97943115234 486.85000610352 71031.13494873 31765977.558884
18510	1905739 5333 16426 21279 200.75 239.75 157 0.973 11.810082123732 515.43055861261 2886.8724378541
18509	1911072 4834 16426 21279 200.75 239.75 157 -3.4797992706299 2.5 39.869146347046 288.3537892539
18508	1915906 5219 16393 21279 200.5 239.75 158 5.6500000953674 15.875 2188.3650727272 31769.767524
18507	1921125 5544 16362 21279 200.25 239.75 159 184.17810058594 483.14999389648 63186.488616943 26835570.35997
18506	1926669 5527 16362 21279 200.25 239.75 159 486.85000610352 734.2177734375 85471.097869873 46861497.058817
18524	1932196 5522 16496 21441 201.25 241.5 162 0.973 11.54047740176 518.96197832611 2865.7553131773
18523	1937718 5123 16496 21441 201.25 241.5 162 -4.5 2.5 38.680875778198 261.41873503244
18522	1942841 5480 16461 21441 201 241.5 163 5.6500000953674 15.867926597595 2315.5381774902 33603.319056035
18521	1948321 5713 16426 21441 200.75 241.5 164 160.43438720703 733.67774963379 71562.895004272 35928653.587021
18520	1954034 5740 16426 21441 200.75 241.5 164 486.85000610352 486.85000610352 79843.401000977 38871760.264651
vector 18590  IntersectionExampleScenario.node[77].veinsmobility  posx  ETV
vector 18591  IntersectionExampleScenario.node[77].veinsmobility  posy  ETV
vector 18592  IntersectionExampleScenario.node[77].veinsmobility  speed  ETV
vector 18593  IntersectionExampleScenario.node[77].veinsmobility  acceleration  ETV
vector 18594  IntersectionExampleScenario.node[77].veinsmobility  co2emission  ETV
18482	1960175 6437 15903 21722 195.5 244.75 198 0.973 11.36141391502 556.97643645912 2788.8431103213
18481	1966612 6207 15903 21722 195.5 244.75 198 -7.6186428070068 4 37.15309715271 469.87707497251
18480	1972819 6242 15880 21722 195.25 244.75 199 0 15.25 2177.1115036011 30124.21544496
18479	1979061 6938 15857 21722 195 244.75 200 486.85000610352 733.15849304199 105707.33966064 56888386.781531
18478	1985999 6991 15857 21722 195 244.75 200 486.63604736328 785.82187652588 111825.89057159 64445574.802185
vector 18597  IntersectionExampleScenario.node[78].veinsmobility  posx  ETV
vector 18598  IntersectionExampleScenario.node[78].veinsmobility  posy  ETV
vector 18599  IntersectionExampleScenario.node[78].veinsmobility  speed  ETV
vector 18600  IntersectionExampleScenario.node[78].veinsmobility  acceleration  ETV
vector 18601  IntersectionExampleScenario.node[78].veinsmobility  co2emission  ETV
18496	1993391 6241 16279 21854 199.5 246.25 188 0.973 11.36141391502 578.94919403187 2926.4859861341
18495	1999632 6321 16279 21854 199.5 246.25 188 -4.5 2.5 41.396924972534 427.64683489126
18494	2005953 6349 16252 21854 199.25 246.25 189 0 16.023113250732 2212.2179328054 31665.789893292
18493	2012302 6643 16225 21854 199 246.25 190 486.85000610352 733.63555908203 100366.06130981 53978588.879636
18492	2018945 6639 16225 21854 199 246.25 190 486.67163085938 792.02188110352 107230.43655396 62444517.185136
18517	2025584 6128 16461 21962 201 247.5 187 0.94600815583079 12.353032912318 582.63571789559 3243.1815819074
18516	2031712 6116 16461 21962 201 247.5 187 -4.5 2.5 41.566686630249 372.71092621207
18515	2037828 6260 16426 21962 200.75 247.5 188 2.6055662631989 16.625 2295.2151710987 32094.688084225
18514	2044088 6606 16393 21962 200.5 247.5 189 238.46380615234 486.85000610352 84112.558837891 38409156.727651
18513	2050694 6600 16393 21962 200.5 247.5 189 483.14999389648 809.21562957764 108407.63273621 64351079.365925
vector 18604  IntersectionExampleScenario.node[79].veinsmobility  posx  ETV
vector 18605  IntersectionExampleScenario.node[79].veinsmobility  posy  ETV
vector 18606  IntersectionExampleScenario.node[79].veinsmobility  speed  ETV
vector 18607  IntersectionExampleScenario.node[79].veinsmobility  acceleration  ETV
vector 18608  IntersectionExampleScenario.node[79].veinsmobility  co2emission  ETV
vector 18611  IntersectionExampleScenario.node[80].veinsmobility  posx  ETV
vector 18612  IntersectionExampleScenario.node[80].veinsmobility  posy  ETV
vector 18613  IntersectionExampleScenario.node[80].veinsmobility  speed  ETV
vector 18614  IntersectionExampleScenario.node[80].veinsmobility  acceleration  ETV
vector 18615  IntersectionExampleScenario.node[80].veinsmobility  co2emission  ETV
18545	2058096 5388 18096 22389 213.75 253.5 160 0.973 11.457706085528 494.81137388404 2723.8741921423
18544	2063484 5307 18096 22389 213.75 253.5 160 -3.8974952697754 2.5 36.98334312439 245.10875455436
18543	2068791 5346 18066 22389 213.5 253.5 161 5.6500000953674 15.384531021118 2211.9055662155 31208.275415168
18542	2074137 5667 18035 22389 213.25 253.5 162 235.09265136719 486.85000610352 70169.422271729 31387317.110119
18541	2079804 5662 18035 22389 213.25 253.5 162 482.96704101562 785.82187652588 92635.491035461 54768205.934842
18447	2085466 9024 14502 22404 179.5 253.75 298 0.973 11.90022389248 711.80834613564 3334.3500351616
18446	2094490 8730 14502 22404 179.5 253.75 298 -8.0256156921387 4 40.208654403687 635.50702058137
18445	2103220 8942 14476 22404 179.25 253.75 299 0 16 2270.2134177685 30102.164388595
18444	2112162 10500 14449 22404 179 253.75 300 483.14999389648 483.14999389648 144944.99816895 70030174.980652
18443	2122662 10478 14449 22404 179 253.75 300 168.70471191406 732.22775268555 134364.21640015 64670456.223205
18454	2133140 8695 14802 22472 182.75 255 290 0.973 11.36141391502 698.35911596377 3270.2726442744
18453	2141835 8527 14802 22472 182.75 255 290 -4.5 2.5 42.924718856812 483.58176406682
18452	2150362 8622 14779 22472 182.5 255 291 0 16.422595977783 2263.174484551 29803.753529429
18451	2158984 10194 14756 22472 182.25 255 292 236.13568115234 483.14999389648 133339.684021 61946565.389745
18450	2169178 10192 14756 22472 182.25 255 292 165.19299316406 483.2121887207 121836.55551147 53189353.995539
18468	2179370 9096 15179 22615 187 257.75 284 0.973 11.648172402475 650.6209751918 3001.2378941449
18467	2188466 9411 15179 22615 187 257.75 284 -4.5 2.5000009536743 38.511121749878 389.05184739367
18466	2197877 9650 15156 22615 186.75 257.75 285 0 15.64999961853 2259.1240409538 28652.549190527
18465	2207527 10006 15133 22615 186.5 257.75 286 483.14999389648 732.37835693359 146516.35792542 76200431.550871
18464	2217533 9991 15133 22615 186.5 257.75 286 170.32458496094 486.8694152832 118871.70718384 51660901.796976
18489	2227524 7723 16279 22732 199.5 260 243 0.973 11.648172402475 594.97140621621 2896.5416068709
18488	2235247 8092 16279 22732 199.5 260 243 -3.8550081253052 2.5 38.511121749878 321.20510208647
18487	2243339 8247 16252 22732 199.25 260 244 0 15.64999961853 2203.2033674568 28492.399346592
18486	2251586 8568 16225 22732 199 260 245 483.14999389648 732.02645874023 126682.95005798 66600351.006865
18485	2260154 8545 16225 22732 199 260 245 184.17810058594 486.87680053711 101238.82788086 43737340.199381
18503	2268699 8031 16393 22883 200.5 263 251 0.973 11.476553705853 619.74895892766 2915.583703227
18502	2276730 8029 16393 22883 200.5 263 251 -4.5 2.5000004768372 38.001859664917 415.70436057112
18501	2284759 8161 16362 22883 200.25 263 252 0 15.410838127136 2300.8417044459 29831.952981978
18500	2292920 8845 16333 22883 200 263 253 483.14999389648 734.12678527832 130751.7520752 68710842.970042
18499	2301765 8827 16333 22883 200 263 253 162.00311279297 487.07366943359 102575.84625244 43910278.00606
18559	2310592 5815 18961 22971 221.25 265 176 0.973 11.90022389248 555.24421243276 3078.296378435
18558	2316407 5783 18961 22971 221.25 265 176 -7.4936351776123 4 39.020376205444 499.18942881058
18557	2322190 5758 18930 22971 221 265 177 0 16 2208.3102083206 31687.78473413
18556	2327948 6221 18899 22971 220.75 265 178 237.58947753906 785.82187652588 92408.216133118 52073885.443914
18555	2334169 6229 18899 22971 220.75 265 178 483.14999389648 483.14999389648 86000.698913574 41551237.155187
vector 18618  IntersectionExampleScenario.node[81].veinsmobility  posx  ETV
vector 18619  IntersectionExampleScenario.node[81].veinsmobility  posy  ETV
18531	2340552 7534 17005 22982 205 265.25 242 0.973 11.648172402475 633.09459503304 3124.1497771701
18530	2348086 6856 17005 22982 205 265.25 242 -8.0923690795898 4 38.850629806519 512.18769626484
18529	2354942 7227 16972 22982 204.75 265.25 243 0 15.64999961853 2287.6374475956 32546.086634536
18528	2362169 8534 16939 22982 204.5 265.25 244 163.76318359375 486.85000610352 101638.55984497 44779272.751662
18527	2370703 8536 16939 22982 204.5 265.25 244 235.67944335938 486.85000610352 110374.44073486 51046237.476456
vector 18620  IntersectionExampleScenario.node[81].veinsmobility  speed  ETV
vector 18621  IntersectionExampleScenario.node[81].veinsmobility  acceleration  ETV
vector 18622  IntersectionExampleScenario.node[81].veinsmobility  co2emission  ETV
vector 18625  IntersectionExampleScenario.node[82].veinsmobility  posx  ETV
vector 18626  IntersectionExampleScenario.node[82].veinsmobility  posy  ETV
vector 18627  IntersectionExampleScenario.node[82].veinsmobility  speed  ETV
vector 18628  IntersectionExampleScenario.node[82].veinsmobility  acceleration  ETV
vector 18629  IntersectionExampleScenario.node[82].veinsmobility  co2emission  ETV
18552	2379887 6382 18551 23090 217.75 267.25 199 0.973 11.36141391502 542.22642064362 2723.9501644721
18551	2386269 6552 18551 23090 217.75 267.25 199 -2.1334838867188 2.5000009536743 36.98334312439 299.68510678457
18550	2392821 6691 18522 23090 217.5 267.25 200 1.3046898841858 15.25 2185.4433691502 28355.569304491
18549	2399512 7001 18493 23090 217.25 267.25 201 184.17810058594 483.14999389648 81795.391082764 35138094.247886
18548	2406513 7026 18493 23090 217.25 267.25 201 486.85000610352 733.56513977051 106248.31674194 57188755.444284
18573	2413539 5925 19223 23150 223.25 268.25 181 0.973 11.450879080643 555.76933986277 2943.2985253118
18572	2419464 5870 19223 23150 223.25 268.25 181 -3.6967620849609 2.5000019073486 40.208654403687 322.78077669413
18571	2425334 6087 19186 23150 223 268.25 182 4.2008051872253 15.747245788574 2213.9824709892 29937.668472091
18570	2431421 6379 19151 23150 222.75 268.25 183 184.17810058594 486.85000610352 73557.667114258 31353704.117671
18569	2437800 6399 19151 23150 222.75 268.25 183 235.49993896484 486.85000610352 80828.509185791 36709662.189796
18580	2444199 6061 19259 23165 223.5 268.5 181 0.973 11.200708441096 546.90575649858 2635.8722638835
18579	2450260 5950 19259 23165 223.5 268.5 181 -4.5 2.5 37.693922042847 358.60304631445
18578	2456210 6345 19223 23165 223.25 268.5 182 3.6474959850311 15.142455101013 2281.776250124 30901.680269618
18577	2462555 6387 19186 23165 223 268.5 183 483.10113525391 802.70781707764 104537.07762909 61867884.609782
18576	2468942 6385 19186 23165 223 268.5 183 483.14999389648 734.30722045898 97190.427185059 52649477.135288
18587	2475327 6097 19333 23270 224 270.25 186 0.973 11.439239982207 546.28212437135 2779.061615838
18586	2481424 6202 19333 23270 224 270.25 186 -4.5 2.5 38.511121749878 299.67584318701
18585	2487626 6289 19296 23270 223.75 270.25 187 4.521146774292 15.491968154907 2297.2092585564 30681.68672795
18584	2493915 6548 19259 23270 223.5 270.25 188 161.1796875 487.06768798828 73807.932006836 31163014.561111
18583	2500463 6573 19259 23270 223.5 270.25 188 238.09002685547 486.85000610352 83225.820800781 37852566.539157
vector 18632  IntersectionExampleScenario.node[83].veinsmobility  posx  ETV
vector 18633  IntersectionExampleScenario.node[83].veinsmobility  posy  ETV
vector 18634  IntersectionExampleScenario.node[83].veinsmobility  speed  ETV
vector 18635  IntersectionExampleScenario.node[83].veinsmobility  acceleration  ETV
vector 18636  IntersectionExampleScenario.node[83].veinsmobility  co2emission  ETV
vector 18639  IntersectionExampleScenario.node[84].veinsmobility  posx  ETV
vector 18640  IntersectionExampleScenario.node[84].veinsmobility  posy  ETV
vector 18641  IntersectionExampleScenario.node[84].veinsmobility  speed  ETV
vector 18642  IntersectionExampleScenario.node[84].veinsmobility  acceleration  ETV
vector 18643  IntersectionExampleScenario.node[84].veinsmobility  co2emission  ETV
vector 18646  IntersectionExampleScenario.node[85].veinsmobility  posx  ETV
vector 18647  IntersectionExampleScenario.node[85].veinsmobility  posy  ETV
vector 18648  IntersectionExampleScenario.node[85].veinsmobility  speed  ETV
18566	2508070 6978 19151 23753 222.75 278 222 0.973 11.90022389248 603.41324356163 3101.369365711
18565	2515048 6427 19151 23753 222.75 278 222 -7.2641291618347 4 39.699392318726 485.24806203163
18564	2521475 6706 19118 23753 222.5 278 223 0 16 2204.2747706175 31714.977261645
18563	2528181 7840 19085 23753 222.25 278 224 236.35540771484 486.85000610352 100795.3527832 46429454.380737
18562	2536021 7834 19085 23753 222.25 278 224 483.14999389648 785.82187652588 123248.50827789 69822838.971054
vector 18649  IntersectionExampleScenario.node[85].veinsmobility  acceleration  ETV
vector 18650  IntersectionExampleScenario.node[85].veinsmobility  co2emission  ETV
vector 18653  IntersectionExampleScenario.node[86].veinsmobility  posx  ETV
vector 18654  IntersectionExampleScenario.node[86].veinsmobility  posy  ETV
vector 18655  IntersectionExampleScenario.node[86].veinsmobility  speed  ETV
vector 18656  IntersectionExampleScenario.node[86].veinsmobility  acceleration  ETV
vector 18657  IntersectionExampleScenario.node[86].veinsmobility  co2emission  ETV
vector 18660  IntersectionExampleScenario.node[87].veinsmobility  posx  ETV
vector 18661  IntersectionExampleScenario.node[87].veinsmobility  posy  ETV
vector 18662  IntersectionExampleScenario.node[87].veinsmobility  speed  ETV
vector 18667  IntersectionExampleScenario.node[88].veinsmobility  posx  ETV
vector 18668  IntersectionExampleScenario.node[88].veinsmobility  posy  ETV
vector 18663  IntersectionExampleScenario.node[87].veinsmobility  acceleration  ETV
vector 18664  IntersectionExampleScenario.node[87].veinsmobility  co2emission  ETV
vector 18669  IntersectionExampleScenario.node[88].veinsmobility  speed  ETV
vector 18670  IntersectionExampleScenario.node[88].veinsmobility  acceleration  ETV
vector 18671  IntersectionExampleScenario.node[88].veinsmobility  co2emission  ETV
vector 18674  IntersectionExampleScenario.node[89].veinsmobility  posx  ETV
vector 18675  IntersectionExampleScenario.node[89].veinsmobility  posy  ETV
vector 18681  IntersectionExampleScenario.node[90].veinsmobility  posx  ETV
vector 18682  IntersectionExampleScenario.node[90].veinsmobility  posy  ETV
vector 18676  IntersectionExampleScenario.node[89].veinsmobility  speed  ETV
vector 18677  IntersectionExampleScenario.node[89].veinsmobility  acceleration  ETV
vector 18678  IntersectionExampleScenario.node[89].veinsmobility  co2emission  ETV
vector 18683  IntersectionExampleScenario.node[90].veinsmobility  speed  ETV
vector 18684  IntersectionExampleScenario.node[90].veinsmobility  acceleration  ETV
vector 18685  IntersectionExampleScenario.node[90].veinsmobility  co2emission  ETV
18538	2546029 9506 17612 24504 209.75 288.5 316 0.973 11.90022389248 734.98990165451 3576.1768920331
18537	2555535 9146 17612 24504 209.75 288.5 316 -19.46448135376 4 41.227170944214 932.91962413743
18536	2564681 9519 17580 24504 209.5 288.5 317 0 16 2208.6095419675 29835.255350457
18535	2574200 11131 17547 24504 209.25 288.5 318 483.14999389648 483.14999389648 153641.69805908 74231985.479491
18534	2585331 11094 17547 24504 209.25 288.5 318 184.17810058594 731.40208435059 143524.27584839 68850827.591239
vector 18688  IntersectionExampleScenario.node[91].veinsmobility  posx  ETV
vector 18689  IntersectionExampleScenario.node[91].veinsmobility  posy  ETV
vector 18690  IntersectionExampleScenario.node[91].veinsmobility  speed  ETV
vector 18691  IntersectionExampleScenario.node[91].veinsmobility  acceleration  ETV
vector 18692  IntersectionExampleScenario.node[91].veinsmobility  co2emission  ETV
vector 18695  IntersectionExampleScenario.node[92].veinsmobility  posx  ETV
vector 18696  IntersectionExampleScenario.node[92].veinsmobility  posy  ETV
vector 18702  IntersectionExampleScenario.node[93].veinsmobility  posx  ETV
vector 18703  IntersectionExampleScenario.node[93].veinsmobility  posy  ETV
vector 18697  IntersectionExampleScenario.node[92].veinsmobility  speed  ETV
vector 18698  IntersectionExampleScenario.node[92].veinsmobility  acceleration  ETV
vector 18699  IntersectionExampleScenario.node[92].veinsmobility  co2emission  ETV
vector 18704  IntersectionExampleScenario.node[93].veinsmobility  speed  ETV
vector 18705  IntersectionExampleScenario.node[93].veinsmobility  acceleration  ETV
vector 18706  IntersectionExampleScenario.node[93].veinsmobility  co2emission  ETV
18615	2597628 5365 22313 24880 252.25 292.5 162 0.94600815583079 12.26218747632 578.90825109338 3709.3279525373
18614	2602993 5099 22313 24880 252.25 292.5 162 -3.4809112548828 2.5 41.566686630249 386.05565105315
18613	2608092 5352 22296 24880 252 292.5 163 5.6500000953674 16.5 2184.0493278503 31069.050410433
18612	2613444 5727 22279 24880 251.75 292.5 164 236.80133056641 483.14999389648 71429.49319458 32014437.104486
18611	2619171 5705 22279 24880 251.75 292.5 164 184.17810058594 483.25888061523 65311.552520752 27718866.183222
18594	2624876 7046 21614 25643 243.5 299.75 226 0.973 12.099024792222 619.15177753864 3270.05467886
[...]
21222	15425127 6136 129025 131643 1732 1773.25 166 483.14999389648 732.41510009766 88392.169998169 48019819.896483
vector 21315  IntersectionExampleScenario.node[466].veinsmobility  speed  ETV
vector 21316  IntersectionExampleScenario.node[466].veinsmobility  acceleration  ETV
vector 21317  IntersectionExampleScenario.node[466].veinsmobility  co2emission  ETV
21240	15431513 5591 129268 131689 1735.5 1773.75 154 0.973 11.648172402475 472.37063277033 2468.6221642102
21239	15437104 5119 129268 131689 1735.5 1773.75 154 -3.3639030456543 2.5 38.511121749878 193.75141553485
21238	15442223 5502 129249 131689 1735.25 1773.75 155 5.6500000953674 15.64999961853 2221.424943924 32483.242225398
21237	15447725 5743 129229 131689 1735 1773.75 156 184.17810058594 734.3458404541 70055.718383789 35615242.946009
21236	15453468 5772 129229 131689 1735 1773.75 156 486.85000610352 486.85000610352 75948.600952148 36975576.837107
vector 21320  IntersectionExampleScenario.node[467].veinsmobility  posx  ETV
vector 21321  IntersectionExampleScenario.node[467].veinsmobility  posy  ETV
vector 21322  IntersectionExampleScenario.node[467].veinsmobility  speed  ETV
vector 21323  IntersectionExampleScenario.node[467].veinsmobility  acceleration  ETV
vector 21324  IntersectionExampleScenario.node[467].veinsmobility  co2emission  ETV
vector 21327  IntersectionExampleScenario.node[468].veinsmobility  posx  ETV
vector 21328  IntersectionExampleScenario.node[468].veinsmobility  posy  ETV
21212	15459802 7720 128558 132623 1725.5 1783.25 232 0.973 11.648172402475 605.99348966816 2980.1729993495
21211	15467522 6966 128558 132623 1725.5 1783.25 232 -6.8117866516113 4 38.850629806519 469.91515502781
21210	15474488 7418 128539 132623 1725.25 1783.25 233 0 15.64999961853 2207.1536474228 31385.929364603
21209	15481906 8653 128520 132623 1725 1783.25 234 235.67944335938 486.85000610352 105505.94067383 48676008.192026
21208	15490559 8649 128520 132623 1725 1783.25 234 483.14999389648 785.82187652588 128309.19733429 72398175.89131
vector 21329  IntersectionExampleScenario.node[468].veinsmobility  speed  ETV
vector 21330  IntersectionExampleScenario.node[468].veinsmobility  acceleration  ETV
vector 21331  IntersectionExampleScenario.node[468].veinsmobility  co2emission  ETV
21219	15499458 7847 128800 132758 1728.75 1784.5 224 0.973 11.810082123732 599.60891981959 3054.7399061972
21218	15507305 8029 128800 132758 1728.75 1784.5 224 -4.4412231445312 2.5000009536743 39.190130233765 412.58791013567
21217	15515334 8018 128781 132758 1728.5 1784.5 225 0 15.875 2226.2238211129 31071.689888407
21216	15523352 8361 128762 132758 1728.25 1784.5 226 486.85000610352 732.43382263184 118056.33181763 62694637.694124
21215	15531713 8343 128762 132758 1728.25 1784.5 226 486.85000610352 797.07032012939 125997.54897308 72370302.541772
vector 21334  IntersectionExampleScenario.node[469].veinsmobility  posx  ETV
vector 21335  IntersectionExampleScenario.node[469].veinsmobility  posy  ETV
vector 21336  IntersectionExampleScenario.node[469].veinsmobility  speed  ETV
vector 21341  IntersectionExampleScenario.node[470].veinsmobility  posx  ETV
vector 21342  IntersectionExampleScenario.node[470].veinsmobility  posy  ETV
vector 21337  IntersectionExampleScenario.node[469].veinsmobility  acceleration  ETV
vector 21338  IntersectionExampleScenario.node[469].veinsmobility  co2emission  ETV
vector 21343  IntersectionExampleScenario.node[470].veinsmobility  speed  ETV
vector 21344  IntersectionExampleScenario.node[470].veinsmobility  acceleration  ETV
vector 21345  IntersectionExampleScenario.node[470].veinsmobility  co2emission  ETV
21233	15540868 6790 129268 132905 1735.5 1785.75 202 0.973 11.990504229548 570.75891441225 3065.8050745592
21232	15547658 7097 129268 132905 1735.5 1785.75 202 -2.0833282470703 2.5 40.208654403687 315.58680974993
21231	15554755 7323 129249 132905 1735.25 1785.75 203 1.0939353704453 16.125 2218.2091146708 29773.883771359
21230	15562078 7548 129229 132905 1735 1785.75 204 486.85000610352 486.85000610352 99317.401245117 48352677.40237
21229	15569626 7530 129229 132905 1735 1785.75 204 236.36346435547 785.82187652588 106798.99625397 60004229.347896
vector 21348  IntersectionExampleScenario.node[471].veinsmobility  posx  ETV
vector 21349  IntersectionExampleScenario.node[471].veinsmobility  posy  ETV
vector 21350  IntersectionExampleScenario.node[471].veinsmobility  speed  ETV
vector 21355  IntersectionExampleScenario.node[472].veinsmobility  posx  ETV
vector 21356  IntersectionExampleScenario.node[472].veinsmobility  posy  ETV
vector 21351  IntersectionExampleScenario.node[471].veinsmobility  acceleration  ETV
vector 21352  IntersectionExampleScenario.node[471].veinsmobility  co2emission  ETV
vector 21357  IntersectionExampleScenario.node[472].veinsmobility  speed  ETV
vector 21358  IntersectionExampleScenario.node[472].veinsmobility  acceleration  ETV
vector 21359  IntersectionExampleScenario.node[472].veinsmobility  co2emission  ETV
vector 21362  IntersectionExampleScenario.node[473].veinsmobility  posx  ETV
vector 21363  IntersectionExampleScenario.node[473].veinsmobility  posy  ETV
vector 21364  IntersectionExampleScenario.node[473].veinsmobility  speed  ETV
vector 21365  IntersectionExampleScenario.node[473].veinsmobility  acceleration  ETV
vector 21366  IntersectionExampleScenario.node[473].veinsmobility  co2emission  ETV
vector 21369  IntersectionExampleScenario.node[474].veinsmobility  posx  ETV
vector 21370  IntersectionExampleScenario.node[474].veinsmobility  posy  ETV
vector 21371  IntersectionExampleScenario.node[474].veinsmobility  speed  ETV
vector 21376  IntersectionExampleScenario.node[475].veinsmobility  posx  ETV
vector 21377  IntersectionExampleScenario.node[475].veinsmobility  posy  ETV
vector 21372  IntersectionExampleScenario.node[474].veinsmobility  acceleration  ETV
vector 21373  IntersectionExampleScenario.node[474].veinsmobility  co2emission  ETV
vector 21378  IntersectionExampleScenario.node[475].veinsmobility  speed  ETV
vector 21379  IntersectionExampleScenario.node[475].veinsmobility  acceleration  ETV
vector 21380  IntersectionExampleScenario.node[475].veinsmobility  co2emission  ETV
vector 21383  IntersectionExampleScenario.node[476].veinsmobility  posx  ETV
vector 21384  IntersectionExampleScenario.node[476].veinsmobility  posy  ETV
vector 21385  IntersectionExampleScenario.node[476].veinsmobility  speed  ETV
vector 21386  IntersectionExampleScenario.node[476].veinsmobility  acceleration  ETV
vector 21387  IntersectionExampleScenario.node[476].veinsmobility  co2emission  ETV
vector 21390  IntersectionExampleScenario.node[477].veinsmobility  posx  ETV
vector 21391  IntersectionExampleScenario.node[477].veinsmobility  posy  ETV
vector 21392  IntersectionExampleScenario.node[477].veinsmobility  speed  ETV
vector 21393  IntersectionExampleScenario.node[477].veinsmobility  acceleration  ETV
vector 21394  IntersectionExampleScenario.node[477].veinsmobility  co2emission  ETV
vector 21397  IntersectionExampleScenario.node[478].veinsmobility  posx  ETV
vector 21398  IntersectionExampleScenario.node[478].veinsmobility  posy  ETV
vector 21399  IntersectionExampleScenario.node[478].veinsmobility  speed  ETV
vector 21400  IntersectionExampleScenario.node[478].veinsmobility  acceleration  ETV
vector 21401  IntersectionExampleScenario.node[478].veinsmobility  co2emission  ETV
21247	15580404 7045 130063 134758 1746.5 1800 215 0.973 11.648172402475 560.85712943656 2871.6506470864
21246	15587449 6648 130063 134758 1746.5 1800 215 -7.7750473022461 4 38.511137008667 476.52679757161
21245	15594097 6736 130046 134758 1746.25 1800 216 0 15.64999961853 1880.9878640175 26255.808214458
21244	15600833 8015 130029 134758 1746 1800 217 483.14999389648 785.82187652588 120198.55695343 68537530.172776
21243	15608848 8021 130029 134758 1746 1800 217 483.14999389648 653.03520202637 108782.62266541 54905118.362997
21254	15616869 5937 130605 134758 1755.5 1800 179 0.973 12.553400930962 534.12832254403 3118.867798904
21253	15622806 6377 130605 134758 1755.5 1800 179 -3.8979241847992 2.5 42.756551742554 344.55630156711
21252	15629183 6447 130590 134758 1755.25 1800 180 0 16.89999961853 1779.1711880341 23742.494317061
21251	15635630 6666 130575 134758 1755 1800 181 483.13580322266 785.82187652588 102908.92932892 60198032.621077
21250	15642296 6693 130575 134758 1755 1800 181 483.14999389648 625.85772705078 90138.596664429 45100773.374015
21261	15648989 5196 131006 134758 1763.75 1800 146 0.973 11.852582968291 503.53753541266 2936.9416309438
21260	15654185 5002 131006 134758 1763.75 1800 146 -3.5636787414551 2.5 39.699445724487 406.38825495285
21259	15659187 5400 130993 134758 1763.5 1800 147 1.8160400390625 15.933959960938 1910.7578854561 27224.702612145
21258	15664587 5441 130980 134758 1763.25 1800 148 184.17810058594 657.69786071777 61756.61289978 28498729.21496
21257	15670028 5476 130980 134758 1763.25 1800 148 486.85000610352 486.85000610352 72053.80090332 35079393.409563
21268	15675504 4855 131049 134758 1764.5 1800 143 0.973 11.990504229548 471.09260155459 2880.4545324429
21267	15680359 4829 131049 134758 1764.5 1800 143 -3.0266265869141 2.5 39.706575393677 304.58423414221
21266	15685188 5085 131034 134758 1764.25 1800 144 4.5087308883667 16.125 1695.6653666496 22003.639144565
21265	15690273 5355 131019 134758 1764 1800 145 367.33898925781 785.82187652588 83616.659996033 50188901.570162
21264	15695628 5363 131019 134758 1764 1800 145 483.14999389648 483.14999389648 70056.74911499 33847917.907315
21275	15700991 4341 131188 134758 1766.75 1800 134 0.973 11.200708441096 305.63800356849 1374.7215755602
21274	15705332 3945 131188 134758 1766.75 1800 134 -9.9326229095459 2.5 -22.60000038147 386.69779286712
21273	15709277 4311 131171 134758 1766.5 1800 135 0 15.02499961853 1145.7775521278 15992.65704727
21272	15713588 5032 131154 134758 1766.25 1800 136 483.14999389648 483.14999389648 65708.399169922 31747012.657895
21271	15718620 5004 131154 134758 1766.25 1800 136 184.17810058594 471.60000610352 51176.195068359 20667094.985649
21282	15723624 4399 131286 134758 1768.25 1800 128 0.973 12.26218747632 482.47245047083 3215.073272906
21281	15728023 4251 131286 134758 1768.25 1800 128 -4.5 2.5 42.242399215698 419.23828667696
21280	15732274 4426 131270 134758 1768 1800 129 5.6500000953674 16.5 1494.9031977654 19131.326197089
21279	15736700 4793 131253 134758 1767.75 1800 130 486.77502441406 793.78281402588 78523.274688721 48809032.504087
21278	15741493 4808 131253 134758 1767.75 1800 130 417.56219482422 483.14999389648 62118.590209961 29706934.003552
21289	15746301 4148 131335 134758 1769 1800 125 0.973 11.200708441096 307.60714418766 1421.4793874232
21288	15750449 3922 131335 134758 1769 1800 125 -8.6476802825928 4 -1.1000003814697 384.47348218583
21287	15754371 4165 131318 134758 1768.75 1800 126 0 15.02499961853 1171.4794850349 15643.514704431
21286	15758536 4698 131301 134758 1768.5 1800 127 485.44281005859 486.85000610352 61826.744232178 30098792.850884
21285	15763234 4690 131301 134758 1768.5 1800 127 493.79089355469 785.82187652588 76453.626991272 47337694.70268
21296	15767924 3970 131485 134758 1771.25 1800 116 0.973 11.200708441096 319.119731634 1585.0649639859
21295	15771894 4112 131485 134758 1771.25 1800 116 -3.1618194580078 2.5 16.855131149292 180.77732607415
21294	15776006 4154 131468 134758 1771 1800 117 5.6500000953674 15.02499961853 1370.1060128212 16998.088198273
21293	15780160 4349 131451 134758 1770.75 1800 118 486.84201049805 802.57735443115 73543.347442627 47148107.0875
21292	15784509 4361 131451 134758 1770.75 1800 118 455.044921875 483.14999389648 56789.494689941 27334562.22118
21303	15788870 3792 131540 134758 1772 1800 113 0.973 10.06867189623 264.78229838952 1104.3976835951
21302	15792662 4143 131540 134758 1772 1800 113 -3.4448394775391 2.5 -12.943416595459 180.42939039623
21301	15796805 4199 131521 134758 1771.75 1800 114 2.1831970214844 14.119716644287 1140.013241291 13483.559088251
21300	15801004 4254 131502 134758 1771.5 1800 115 486.85000610352 486.85000610352 55987.750701904 27257636.770944
21299	15805258 4229 131502 134758 1771.5 1800 115 513.8957824707 798.59687805176 73841.608039856 48501309.590403
21310	15809487 3809 131601 134758 1772.75 1800 110 0.973 11.200708441096 284.54474524505 1367.5303381326
21309	15813296 3831 131601 134758 1772.75 1800 110 -4.5 2.5 -4.8208904266357 331.21163775833
21308	15817127 4079 131580 134758 1772.5 1800 111 0 15.02499961853 1088.0983770024 14447.883651056
21307	15821206 4144 131559 134758 1772.25 1800 112 486.85000610352 486.85000610352 54527.200683594 26546567.985615
21306	15825350 4137 131559 134758 1772.25 1800 112 502.3747253418 773.16876220703 68058.917655945 42357573.14165
21317	15829487 3725 131689 134758 1773.75 1800 106 0.973 12.099024792222 387.10895092774 2429.446428423
21316	15833212 3711 131689 134758 1773.75 1800 106 -3.530086517334 2.5 35.057439804077 266.05021221783
21315	15836923 3926 131666 134758 1773.5 1800 107 5.6500000953674 16.27499961853 1400.9860186577 19681.831145748
21314	15840849 3964 131643 134758 1773.25 1800 108 184.17810058594 486.85000610352 38862.367279053 15198180.978281
21313	15844813 3993 131643 134758 1773.25 1800 108 438.07745361328 486.85000610352 52077.081970215 25124282.95388
21324	15848806 3075 131923 134758 1776.25 1800 96 0.973 12.553400930962 270.14133755468 1678.2499620112
21323	15851881 3429 131923 134758 1776.25 1800 96 -2.2011489868164 2.5 -12.567708969116 193.33819517869
21322	15855310 3572 131898 134758 1776 1800 97 2.5080728530884 16.89999961853 1091.9845569134 14624.840808141
21321	15858882 3625 131873 134758 1775.75 1800 98 483.14999389648 483.14999389648 47348.699401855 22876523.827013
21320	15862507 3604 131873 134758 1775.75 1800 98 184.17810058594 456.45526123047 33176.79788208 12063040.209037
21331	15866111 2315 132677 134758 1783.75 1800 66 0.973 10.756497587458 203.92352964753 1102.7803521143
21330	15868426 2386 132677 134758 1783.75 1800 66 -2.0221061706543 2.5 16.869344711304 117.61256401468
21329	15870812 2462 132650 134758 1783.5 1800 67 5.6500000953674 14.39999961853 859.19506931305 11356.23114959
21328	15873274 2516 132623 134758 1783.25 1800 68 483.14999389648 483.14999389648 32854.199584961 15873506.328948
21327	15875790 2494 132623 134758 1783.25 1800 68 184.17810058594 395.76235961914 19333.402557373 5800199.3283294
21338	15878284 2168 132843 134758 1785.25 1800 60 0.973 10.756497587458 218.1169963269 1192.7336558205
21337	15880452 2152 132843 134758 1785.25 1800 60 -4.5 2.5 30.997385025024 113.37397397634
21336	15882604 2241 132814 134758 1785 1800 61 5.6500000953674 15.223288536072 838.60118675232 11919.032492607
21335	15884845 2293 132785 134758 1784.75 1800 62 483.14999389648 483.14999389648 29955.299621582 14472902.829335
21334	15887138 2271 132785 134758 1784.75 1800 62 163.88433837891 369.03167724609 15928.129180908 4346655.7853121
21345	15889409 2136 132905 134758 1785.75 1800 58 1.0414866998315 11.200708441096 213.59971703251 1306.7619933196
21344	15891545 2098 132905 134758 1785.75 1800 58 -0.30665969848633 2.5 37.274423599243 98.324239530211
21343	15893643 2165 132874 134758 1785.5 1800 59 5.6500000953674 15.202494621277 805.13559246063 11361.099194119
21342	15895808 2213 132843 134758 1785.25 1800 60 589.5592956543 785.82187652588 41814.945793152 29366216.566727
21341	15898021 2220 132843 134758 1785.25 1800 60 483.14999389648 483.14999389648 28988.999633789 14006034.99613
21352	15900241 1931 133064 134758 1787 1800 53 0.973 11.200708441096 196.36917808633 1200.2084221974
21351	15902172 1921 133064 134758 1787 1800 53 -1.2464904785156 2.5 34.718362808228 95.640411994467
21350	15904093 1985 133031 134758 1786.75 1800 54 5.6500000953674 15.02499961853 722.60552024841 10013.376419689
21349	15906078 2034 132998 134758 1786.5 1800 55 486.85000610352 486.85000610352 26776.750335693 13036261.064365
21348	15908112 2031 132998 134758 1786.5 1800 55 609.97573852539 785.82187652588 38864.901023865 27629662.575091
21359	15910143 1876 133134 134758 1787.5 1800 51 1.872332414688 11.03740266928 203.53979945906 1253.4394984518
21358	15912019 1878 133134 134758 1787.5 1800 51 -0.084182739257812 2.5 38.511140823364 93.346499113472
21357	15913897 1916 133099 134758 1787.25 1800 52 5.6500000953674 15.361963272095 703.6494102478 9948.3573690002
21356	15915813 1959 133064 134758 1787 1800 53 486.85000610352 486.85000610352 25803.050323486 12562215.207479
21355	15917772 1956 133064 134758 1787 1800 53 638.75578308105 809.56562805176 38923.057388306 28736813.733298
21366	15919728 1360 133602 134758 1791 1800 37 1.3699353896297 11.200708441096 166.34461822196 1141.0317662642
21365	15921088 1275 133602 134758 1791 1800 37 -0.21404266357422 2.5 36.645360946655 93.85470750646
21364	15922363 1395 133569 134758 1790.75 1800 38 5.6500000953674 15.02499961853 491.88204956055 6687.6992827397
21363	15923758 1440 133536 134758 1790.5 1800 39 667.78912353516 785.82187652588 28658.745933533 21113992.088302
21362	15925198 1442 133536 134758 1790.5 1800 39 483.14999389648 483.14999389648 18842.849761963 9103922.7474847
21373	15926640 985 133912 134758 1793.5 1800 27 0.973 11.200708441096 142.90807601189 1089.0587629896
21372	15927625 861 133912 134758 1793.5 1800 27 -0.38379669189453 2.5 36.01344871521 94.086335665608
21371	15928486 1024 133881 134758 1793.25 1800 28 5.6500000953674 15.02499961853 342.20936489105 4447.8499227961
21370	15929510 1071 133850 134758 1793 1800 29 483.14999389648 483.14999389648 14011.349822998 6769583.581463
21369	15930581 1047 133850 134758 1793 1800 29 184.17810058594 264.83856201172 6314.0823974609 1393756.1466637
21380	15931628 920 133978 134758 1794 1800 25 1.3890595465166 11.196880740889 138.99968191 1038.5703375423
21379	15932548 818 133978 134758 1794 1800 25 -0.20867538452148 2.5 36.841909408569 87.655583627933
21378	15933366 960 133945 134758 1793.75 1800 26 5.6500000953674 15.019633293152 287.92910766602 3414.9792122237
21377	15934326 998 133912 134758 1793.5 1800 27 483.14999389648 483.14999389648 13045.049835205 6302715.7482587
21376	15935324 983 133912 134758 1793.5 1800 27 160.43438720703 227.47003173828 5071.6650390625 964120.66884214
21387	15936307 662 134210 134758 1795.75 1800 18 2.0947737808434 11.648172402475 138.47024035554 1197.7570079439
21386	15936969 485 134210 134758 1795.75 1800 18 -0.03271484375 2.5 39.942747116089 100.00166274608
21385	15937454 691 134177 134758 1795.5 1800 19 5.6500000953674 15.64999961853 212.32750320435 2576.6986523383
21384	15938145 723 134143 134758 1795.25 1800 20 184.17810058594 232.02294921875 4063.0665283203 829923.49134661
21383	15938868 740 134143 134758 1795.25 1800 20 486.85000610352 486.85000610352 9737.0001220703 4740458.5688599
21394	15939608 476 134374 134758 1797 1800 13 5.2162187258585 10.315404520939 100.64515864481 812.01557512667
21393	15940084 335 134374 134758 1797 1800 13 2.4999980926514 2.5 32.499998092651 81.24999046326
21392	15940419 510 134341 134758 1796.75 1800 14 5.6500000953674 13.77499961853 135.97499656677 1409.5242963886
21391	15940929 546 134308 134758 1796.5 1800 15 162.90466308594 192.43902587891 2621.8732299805 459624.66812787
21390	15941475 554 134308 134758 1796.5 1800 15 486.85000610352 486.85000610352 7302.7500915527 3555343.9266449
21401	15942029 73 134724 134758 1799.75 1800 2 5.2162187258585 5.6304533568076 10.846672082666 58.910942799184
21400	15942102 49 134724 134758 1799.75 1800 2 2.5 2.5 5 12.5
21399	15942151 110 134691 134758 1799.5 1800 3 5.6500000953674 6.9000000953674 18.825000286102 118.90812859058
21398	15942261 148 134658 134758 1799.25 1800 4 782.99687957764 785.82187652588 3139.1281356812 2463536.799126
21397	15942409 148 134658 134758 1799.25 1800 4 483.14999389648 483.14999389648 1932.5999755859 933735.66640869
18047	15942557 624 0 134757 0 1800 31 0 23 392 5676
18048	15943181 645 0 134757 0 1800 31 0 167 2654 298502
