version 2
run nodebug-35-20200606-17:44:29-10964
attr configname nodebug
attr datetime 20200606-17:44:29
attr experiment nodebug
attr inifile omnetpp.ini
attr iterationvars ""
attr iterationvars2 $repetition=35
attr measurement ""
attr network "\"org.car2x.veins.modules.application.ExtTraCIScenarioManagerLaunchd.IntersectionExampleScenario\""
attr processid 10964
attr repetition 35
attr replication #35
attr resultdir results
attr runnumber 35
attr seedset 35
param **.coreDebug false
param **.debug false
param *.**.nic.mac1609_4.bitrate 18Mbps
param *.**.nic.mac1609_4.txPower 20mW
param *.**.nic.mac1609_4.useServiceChannel false
param *.**.nic.phy80211p.analogueModels "xmldoc(\"config.xml\")"
param *.**.nic.phy80211p.decider "xmldoc(\"config.xml\")"
param *.**.nic.phy80211p.sensitivity -89dBm
param *.**.nic.phy80211p.thermalNoise -110dBm
param *.**.nic.phy80211p.usePropagationDelay true
param *.**.nic.phy80211p.useThermalNoise true
param *.annotations.draw false
param *.connectionManager.alpha 2.0
param *.connectionManager.carrierFrequency "5.890e9 Hz"
param *.connectionManager.pMax 20mW
param *.connectionManager.sat -89dBm
param *.connectionManager.sendDirect true
param *.manager.autoShutdown true
param *.manager.host "\"localhost\""
param *.manager.launchConfig "xmldoc(\"paramics.launchd.xml\")"
param *.manager.margin 25
param *.manager.moduleDisplayString "\"\""
param *.manager.moduleName "\"node\""
param *.manager.moduleType "\"org.car2x.veins.nodes.Car\""
param *.manager.port 9999
param *.manager.updateInterval 250ms
param *.node[*0].veinsmobility.accidentCount 0
param *.node[*0].veinsmobility.accidentDuration 30s
param *.node[*0].veinsmobility.accidentStart 75s
param *.node[*].appl.LiderSelectZoneRadio 55.0
param *.node[*].appl.ShareDataZoneRadio 110.0
param *.node[*].appl.TiempoSemaforo 30.0
param *.node[*].appl.beaconInterval 1s
param *.node[*].appl.beaconPriority 3
param *.node[*].appl.dataOnSch false
param *.node[*].appl.dataPriority 2
param *.node[*].appl.debug false
param *.node[*].appl.headerLength "256 bit"
param *.node[*].appl.maxOffset 0.005s
param *.node[*].appl.sendBeacons false
param *.node[*].appl.sendData true
param *.node[*].applType "\"Dummy\""
param *.node[*].mobilityType "\"TraCIMobility\""
param *.node[*].mobilityType.debug true
param *.node[*].veinsmobility.x 0
param *.node[*].veinsmobility.y 0
param *.node[*].veinsmobility.z 1.895
param *.node[*].veinsmobilityType "\"org.car2x.veins.modules.mobility.traci.TraCIMobility\""
param *.node[*].veinsmobilityType.debug true
param *.playgroundSizeX 8500m
param *.playgroundSizeY 8500m
param *.playgroundSizeZ 50m
param *.world.use2D false
param *.world.useTorus false

scalar IntersectionExampleScenario.node[0].appl 	VehicleRemoved 	0
scalar IntersectionExampleScenario.node[0].appl 	ArrivedAtDest 	1
scalar IntersectionExampleScenario.node[0].appl 	IntersectionEnterTime 	2
scalar IntersectionExampleScenario.node[0].appl 	IntersectionExitTime 	25.534678069846
scalar IntersectionExampleScenario.node[0].appl 	NumberOfCollisions 	0
scalar IntersectionExampleScenario.node[0].nic.phy80211p 	busyTime 	0
scalar IntersectionExampleScenario.node[0].nic.mac1609_4 	ReceivedUnicastPackets 	0
scalar IntersectionExampleScenario.node[0].nic.mac1609_4 	ReceivedBroadcasts 	0
scalar IntersectionExampleScenario.node[0].nic.mac1609_4 	SentPackets 	0
scalar IntersectionExampleScenario.node[0].nic.mac1609_4 	SNIRLostPackets 	0
scalar IntersectionExampleScenario.node[0].nic.mac1609_4 	RXTXLostPackets 	0
scalar IntersectionExampleScenario.node[0].nic.mac1609_4 	TotalLostPackets 	0
scalar IntersectionExampleScenario.node[0].nic.mac1609_4 	DroppedPacketsInMac 	0
scalar IntersectionExampleScenario.node[0].nic.mac1609_4 	TooLittleTime 	0
scalar IntersectionExampleScenario.node[0].nic.mac1609_4 	TimesIntoBackoff 	0
scalar IntersectionExampleScenario.node[0].nic.mac1609_4 	SlotsBackoff 	0
scalar IntersectionExampleScenario.node[0].nic.mac1609_4 	NumInternalContention 	0
scalar IntersectionExampleScenario.node[0].nic.mac1609_4 	totalBusyTime 	0
scalar IntersectionExampleScenario.node[0].veinsmobility 	startTime 	2
scalar IntersectionExampleScenario.node[0].veinsmobility 	totalTime 	40
scalar IntersectionExampleScenario.node[0].veinsmobility 	stopTime 	42.25
scalar IntersectionExampleScenario.node[0].veinsmobility 	minSpeed 	5.6500000953674
scalar IntersectionExampleScenario.node[0].veinsmobility 	maxSpeed 	15.375
scalar IntersectionExampleScenario.node[0].veinsmobility 	totalDistance 	550.34829115372
scalar IntersectionExampleScenario.node[0].veinsmobility 	totalCO2Emission 	121.11181003779
scalar IntersectionExampleScenario.node[1].appl 	VehicleRemoved 	0
scalar IntersectionExampleScenario.node[1].appl 	ArrivedAtDest 	1
scalar IntersectionExampleScenario.node[1].appl 	IntersectionEnterTime 	10
scalar IntersectionExampleScenario.node[1].appl 	IntersectionExitTime 	38.534598486294
scalar IntersectionExampleScenario.node[1].appl 	NumberOfCollisions 	0
scalar IntersectionExampleScenario.node[1].nic.phy80211p 	busyTime 	0
scalar IntersectionExampleScenario.node[1].nic.mac1609_4 	ReceivedUnicastPackets 	0
scalar IntersectionExampleScenario.node[1].nic.mac1609_4 	ReceivedBroadcasts 	0
scalar IntersectionExampleScenario.node[1].nic.mac1609_4 	SentPackets 	0
scalar IntersectionExampleScenario.node[1].nic.mac1609_4 	SNIRLostPackets 	0
scalar IntersectionExampleScenario.node[1].nic.mac1609_4 	RXTXLostPackets 	0
scalar IntersectionExampleScenario.node[1].nic.mac1609_4 	TotalLostPackets 	0
scalar IntersectionExampleScenario.node[1].nic.mac1609_4 	DroppedPacketsInMac 	0
scalar IntersectionExampleScenario.node[1].nic.mac1609_4 	TooLittleTime 	0
scalar IntersectionExampleScenario.node[1].nic.mac1609_4 	TimesIntoBackoff 	0
scalar IntersectionExampleScenario.node[1].nic.mac1609_4 	SlotsBackoff 	0
scalar IntersectionExampleScenario.node[1].nic.mac1609_4 	NumInternalContention 	0
scalar IntersectionExampleScenario.node[1].nic.mac1609_4 	totalBusyTime 	0
scalar IntersectionExampleScenario.node[1].veinsmobility 	startTime 	10
scalar IntersectionExampleScenario.node[1].veinsmobility 	totalTime 	45
scalar IntersectionExampleScenario.node[1].veinsmobility 	stopTime 	55.25
scalar IntersectionExampleScenario.node[1].veinsmobility 	minSpeed 	0
scalar IntersectionExampleScenario.node[1].veinsmobility 	maxSpeed 	15.875
scalar IntersectionExampleScenario.node[1].veinsmobility 	totalDistance 	545.34084988982
scalar IntersectionExampleScenario.node[1].veinsmobility 	totalCO2Emission 	139.80662286764
scalar IntersectionExampleScenario.node[4].appl 	VehicleRemoved 	0
scalar IntersectionExampleScenario.node[4].appl 	ArrivedAtDest 	1
scalar IntersectionExampleScenario.node[4].appl 	IntersectionEnterTime 	23
scalar IntersectionExampleScenario.node[4].appl 	IntersectionExitTime 	46.027798255673
scalar IntersectionExampleScenario.node[4].appl 	NumberOfCollisions 	0
scalar IntersectionExampleScenario.node[4].nic.phy80211p 	busyTime 	0
scalar IntersectionExampleScenario.node[4].nic.mac1609_4 	ReceivedUnicastPackets 	0
scalar IntersectionExampleScenario.node[4].nic.mac1609_4 	ReceivedBroadcasts 	0
scalar IntersectionExampleScenario.node[4].nic.mac1609_4 	SentPackets 	0
scalar IntersectionExampleScenario.node[4].nic.mac1609_4 	SNIRLostPackets 	0
scalar IntersectionExampleScenario.node[4].nic.mac1609_4 	RXTXLostPackets 	0
scalar IntersectionExampleScenario.node[4].nic.mac1609_4 	TotalLostPackets 	0
scalar IntersectionExampleScenario.node[4].nic.mac1609_4 	DroppedPacketsInMac 	0
scalar IntersectionExampleScenario.node[4].nic.mac1609_4 	TooLittleTime 	0
scalar IntersectionExampleScenario.node[4].nic.mac1609_4 	TimesIntoBackoff 	0
scalar IntersectionExampleScenario.node[4].nic.mac1609_4 	SlotsBackoff 	0
scalar IntersectionExampleScenario.node[4].nic.mac1609_4 	NumInternalContention 	0
scalar IntersectionExampleScenario.node[4].nic.mac1609_4 	totalBusyTime 	0
scalar IntersectionExampleScenario.node[4].veinsmobility 	startTime 	23
scalar IntersectionExampleScenario.node[4].veinsmobility 	totalTime 	39.25
scalar IntersectionExampleScenario.node[4].veinsmobility 	stopTime 	62.5
scalar IntersectionExampleScenario.node[4].veinsmobility 	minSpeed 	5.6500000953674
scalar IntersectionExampleScenario.node[4].veinsmobility 	maxSpeed 	15.5
scalar IntersectionExampleScenario.node[4].veinsmobility 	totalDistance 	552.79508209229
scalar IntersectionExampleScenario.node[4].veinsmobility 	totalCO2Emission 	116.15807789636
scalar IntersectionExampleScenario.node[5].appl 	VehicleRemoved 	0
scalar IntersectionExampleScenario.node[5].appl 	ArrivedAtDest 	1
scalar IntersectionExampleScenario.node[5].appl 	IntersectionEnterTime 	31.5
scalar IntersectionExampleScenario.node[5].appl 	IntersectionExitTime 	54.258735015785
scalar IntersectionExampleScenario.node[5].appl 	NumberOfCollisions 	0
scalar IntersectionExampleScenario.node[5].nic.phy80211p 	busyTime 	0
scalar IntersectionExampleScenario.node[5].nic.mac1609_4 	ReceivedUnicastPackets 	0
scalar IntersectionExampleScenario.node[5].nic.mac1609_4 	ReceivedBroadcasts 	0
scalar IntersectionExampleScenario.node[5].nic.mac1609_4 	SentPackets 	0
scalar IntersectionExampleScenario.node[5].nic.mac1609_4 	SNIRLostPackets 	0
scalar IntersectionExampleScenario.node[5].nic.mac1609_4 	RXTXLostPackets 	0
scalar IntersectionExampleScenario.node[5].nic.mac1609_4 	TotalLostPackets 	0
scalar IntersectionExampleScenario.node[5].nic.mac1609_4 	DroppedPacketsInMac 	0
scalar IntersectionExampleScenario.node[5].nic.mac1609_4 	TooLittleTime 	0
scalar IntersectionExampleScenario.node[5].nic.mac1609_4 	TimesIntoBackoff 	0
scalar IntersectionExampleScenario.node[5].nic.mac1609_4 	SlotsBackoff 	0
scalar IntersectionExampleScenario.node[5].nic.mac1609_4 	NumInternalContention 	0
scalar IntersectionExampleScenario.node[5].nic.mac1609_4 	totalBusyTime 	0
scalar IntersectionExampleScenario.node[5].veinsmobility 	startTime 	31.5
scalar IntersectionExampleScenario.node[5].veinsmobility 	totalTime 	38.5
scalar IntersectionExampleScenario.node[5].veinsmobility 	stopTime 	70.25
scalar IntersectionExampleScenario.node[5].veinsmobility 	minSpeed 	5.6500000953674
scalar IntersectionExampleScenario.node[5].veinsmobility 	maxSpeed 	16.27499961853
scalar IntersectionExampleScenario.node[5].veinsmobility 	totalDistance 	550.32833343507
scalar IntersectionExampleScenario.node[5].veinsmobility 	totalCO2Emission 	126.42179496295
scalar IntersectionExampleScenario.node[8].appl 	VehicleRemoved 	0
scalar IntersectionExampleScenario.node[8].appl 	ArrivedAtDest 	1
scalar IntersectionExampleScenario.node[8].appl 	IntersectionEnterTime 	36.5
scalar IntersectionExampleScenario.node[8].appl 	IntersectionExitTime 	59.604015817982
scalar IntersectionExampleScenario.node[8].appl 	NumberOfCollisions 	0
scalar IntersectionExampleScenario.node[8].nic.phy80211p 	busyTime 	0
scalar IntersectionExampleScenario.node[8].nic.mac1609_4 	ReceivedUnicastPackets 	0
scalar IntersectionExampleScenario.node[8].nic.mac1609_4 	ReceivedBroadcasts 	0
scalar IntersectionExampleScenario.node[8].nic.mac1609_4 	SentPackets 	0
scalar IntersectionExampleScenario.node[8].nic.mac1609_4 	SNIRLostPackets 	0
scalar IntersectionExampleScenario.node[8].nic.mac1609_4 	RXTXLostPackets 	0
scalar IntersectionExampleScenario.node[8].nic.mac1609_4 	TotalLostPackets 	0
scalar IntersectionExampleScenario.node[8].nic.mac1609_4 	DroppedPacketsInMac 	0
scalar IntersectionExampleScenario.node[8].nic.mac1609_4 	TooLittleTime 	0
scalar IntersectionExampleScenario.node[8].nic.mac1609_4 	TimesIntoBackoff 	0
scalar IntersectionExampleScenario.node[8].nic.mac1609_4 	SlotsBackoff 	0
scalar IntersectionExampleScenario.node[8].nic.mac1609_4 	NumInternalContention 	0
scalar IntersectionExampleScenario.node[8].nic.mac1609_4 	totalBusyTime 	0
scalar IntersectionExampleScenario.node[8].veinsmobility 	startTime 	36.5
scalar IntersectionExampleScenario.node[8].veinsmobility 	totalTime 	39.5
scalar IntersectionExampleScenario.node[8].veinsmobility 	stopTime 	76.25
scalar IntersectionExampleScenario.node[8].veinsmobility 	minSpeed 	5.6500000953674
scalar IntersectionExampleScenario.node[8].veinsmobility 	maxSpeed 	15.875
scalar IntersectionExampleScenario.node[8].veinsmobility 	totalDistance 	546.13272800517
scalar IntersectionExampleScenario.node[8].veinsmobility 	totalCO2Emission 	128.92104222243
scalar IntersectionExampleScenario.node[2].appl 	VehicleRemoved 	0
scalar IntersectionExampleScenario.node[2].appl 	ArrivedAtDest 	1
scalar IntersectionExampleScenario.node[2].appl 	IntersectionEnterTime 	17.25
scalar IntersectionExampleScenario.node[2].appl 	IntersectionExitTime 	63.255725270137
scalar IntersectionExampleScenario.node[2].appl 	NumberOfCollisions 	0
scalar IntersectionExampleScenario.node[2].nic.phy80211p 	busyTime 	0
scalar IntersectionExampleScenario.node[2].nic.mac1609_4 	ReceivedUnicastPackets 	0
scalar IntersectionExampleScenario.node[2].nic.mac1609_4 	ReceivedBroadcasts 	0
scalar IntersectionExampleScenario.node[2].nic.mac1609_4 	SentPackets 	0
scalar IntersectionExampleScenario.node[2].nic.mac1609_4 	SNIRLostPackets 	0
scalar IntersectionExampleScenario.node[2].nic.mac1609_4 	RXTXLostPackets 	0
scalar IntersectionExampleScenario.node[2].nic.mac1609_4 	TotalLostPackets 	0
scalar IntersectionExampleScenario.node[2].nic.mac1609_4 	DroppedPacketsInMac 	0
scalar IntersectionExampleScenario.node[2].nic.mac1609_4 	TooLittleTime 	0
scalar IntersectionExampleScenario.node[2].nic.mac1609_4 	TimesIntoBackoff 	0
scalar IntersectionExampleScenario.node[2].nic.mac1609_4 	SlotsBackoff 	0
scalar IntersectionExampleScenario.node[2].nic.mac1609_4 	NumInternalContention 	0
scalar IntersectionExampleScenario.node[2].nic.mac1609_4 	totalBusyTime 	0
scalar IntersectionExampleScenario.node[2].veinsmobility 	startTime 	17.25
scalar IntersectionExampleScenario.node[2].veinsmobility 	totalTime 	62.25
scalar IntersectionExampleScenario.node[2].veinsmobility 	stopTime 	79.75
scalar IntersectionExampleScenario.node[2].veinsmobility 	minSpeed 	0
scalar IntersectionExampleScenario.node[2].veinsmobility 	maxSpeed 	15.375
scalar IntersectionExampleScenario.node[2].veinsmobility 	totalDistance 	551.64488220215
scalar IntersectionExampleScenario.node[2].veinsmobility 	totalCO2Emission 	151.77843353381
scalar IntersectionExampleScenario.node[3].appl 	VehicleRemoved 	0
scalar IntersectionExampleScenario.node[3].appl 	ArrivedAtDest 	1
scalar IntersectionExampleScenario.node[3].appl 	IntersectionEnterTime 	18.5
scalar IntersectionExampleScenario.node[3].appl 	IntersectionExitTime 	65.373632953124
scalar IntersectionExampleScenario.node[3].appl 	NumberOfCollisions 	0
scalar IntersectionExampleScenario.node[3].nic.phy80211p 	busyTime 	0
scalar IntersectionExampleScenario.node[3].nic.mac1609_4 	ReceivedUnicastPackets 	0
scalar IntersectionExampleScenario.node[3].nic.mac1609_4 	ReceivedBroadcasts 	0
scalar IntersectionExampleScenario.node[3].nic.mac1609_4 	SentPackets 	0
scalar IntersectionExampleScenario.node[3].nic.mac1609_4 	SNIRLostPackets 	0
scalar IntersectionExampleScenario.node[3].nic.mac1609_4 	RXTXLostPackets 	0
scalar IntersectionExampleScenario.node[3].nic.mac1609_4 	TotalLostPackets 	0
scalar IntersectionExampleScenario.node[3].nic.mac1609_4 	DroppedPacketsInMac 	0
scalar IntersectionExampleScenario.node[3].nic.mac1609_4 	TooLittleTime 	0
scalar IntersectionExampleScenario.node[3].nic.mac1609_4 	TimesIntoBackoff 	0
scalar IntersectionExampleScenario.node[3].nic.mac1609_4 	SlotsBackoff 	0
scalar IntersectionExampleScenario.node[3].nic.mac1609_4 	NumInternalContention 	0
scalar IntersectionExampleScenario.node[3].nic.mac1609_4 	totalBusyTime 	0
scalar IntersectionExampleScenario.node[3].veinsmobility 	startTime 	18.5
scalar IntersectionExampleScenario.node[3].veinsmobility 	totalTime 	62.75
scalar IntersectionExampleScenario.node[3].veinsmobility 	stopTime 	81.5
scalar IntersectionExampleScenario.node[3].veinsmobility 	minSpeed 	0
scalar IntersectionExampleScenario.node[3].veinsmobility 	maxSpeed 	15.306304931641
scalar IntersectionExampleScenario.node[3].veinsmobility 	totalDistance 	573.52090454102
scalar IntersectionExampleScenario.node[3].veinsmobility 	totalCO2Emission 	157.69229897518
scalar IntersectionExampleScenario.node[6].appl 	VehicleRemoved 	0
scalar IntersectionExampleScenario.node[6].appl 	ArrivedAtDest 	1
scalar IntersectionExampleScenario.node[6].appl 	IntersectionEnterTime 	33.25
scalar IntersectionExampleScenario.node[6].appl 	IntersectionExitTime 	67.859340265917
scalar IntersectionExampleScenario.node[6].appl 	NumberOfCollisions 	0
scalar IntersectionExampleScenario.node[6].nic.phy80211p 	busyTime 	0
scalar IntersectionExampleScenario.node[6].nic.mac1609_4 	ReceivedUnicastPackets 	0
scalar IntersectionExampleScenario.node[6].nic.mac1609_4 	ReceivedBroadcasts 	0
scalar IntersectionExampleScenario.node[6].nic.mac1609_4 	SentPackets 	0
scalar IntersectionExampleScenario.node[6].nic.mac1609_4 	SNIRLostPackets 	0
scalar IntersectionExampleScenario.node[6].nic.mac1609_4 	RXTXLostPackets 	0
scalar IntersectionExampleScenario.node[6].nic.mac1609_4 	TotalLostPackets 	0
scalar IntersectionExampleScenario.node[6].nic.mac1609_4 	DroppedPacketsInMac 	0
scalar IntersectionExampleScenario.node[6].nic.mac1609_4 	TooLittleTime 	0
scalar IntersectionExampleScenario.node[6].nic.mac1609_4 	TimesIntoBackoff 	0
scalar IntersectionExampleScenario.node[6].nic.mac1609_4 	SlotsBackoff 	0
scalar IntersectionExampleScenario.node[6].nic.mac1609_4 	NumInternalContention 	0
scalar IntersectionExampleScenario.node[6].nic.mac1609_4 	totalBusyTime 	0
scalar IntersectionExampleScenario.node[6].veinsmobility 	startTime 	33.25
scalar IntersectionExampleScenario.node[6].veinsmobility 	totalTime 	51
scalar IntersectionExampleScenario.node[6].veinsmobility 	stopTime 	84.5
scalar IntersectionExampleScenario.node[6].veinsmobility 	minSpeed 	0.71600556373596
scalar IntersectionExampleScenario.node[6].veinsmobility 	maxSpeed 	15.875
scalar IntersectionExampleScenario.node[6].veinsmobility 	totalDistance 	543.73242206943
scalar IntersectionExampleScenario.node[6].veinsmobility 	totalCO2Emission 	141.96855026683
scalar IntersectionExampleScenario.node[10].appl 	VehicleRemoved 	0
scalar IntersectionExampleScenario.node[10].appl 	ArrivedAtDest 	1
scalar IntersectionExampleScenario.node[10].appl 	IntersectionEnterTime 	40
scalar IntersectionExampleScenario.node[10].appl 	IntersectionExitTime 	70.116249521147
scalar IntersectionExampleScenario.node[10].appl 	NumberOfCollisions 	0
scalar IntersectionExampleScenario.node[10].nic.phy80211p 	busyTime 	0
scalar IntersectionExampleScenario.node[10].nic.mac1609_4 	ReceivedUnicastPackets 	0
scalar IntersectionExampleScenario.node[10].nic.mac1609_4 	ReceivedBroadcasts 	0
scalar IntersectionExampleScenario.node[10].nic.mac1609_4 	SentPackets 	0
scalar IntersectionExampleScenario.node[10].nic.mac1609_4 	SNIRLostPackets 	0
scalar IntersectionExampleScenario.node[10].nic.mac1609_4 	RXTXLostPackets 	0
scalar IntersectionExampleScenario.node[10].nic.mac1609_4 	TotalLostPackets 	0
scalar IntersectionExampleScenario.node[10].nic.mac1609_4 	DroppedPacketsInMac 	0
scalar IntersectionExampleScenario.node[10].nic.mac1609_4 	TooLittleTime 	0
scalar IntersectionExampleScenario.node[10].nic.mac1609_4 	TimesIntoBackoff 	0
scalar IntersectionExampleScenario.node[10].nic.mac1609_4 	SlotsBackoff 	0
scalar IntersectionExampleScenario.node[10].nic.mac1609_4 	NumInternalContention 	0
scalar IntersectionExampleScenario.node[10].nic.mac1609_4 	totalBusyTime 	0
scalar IntersectionExampleScenario.node[10].veinsmobility 	startTime 	40
scalar IntersectionExampleScenario.node[10].veinsmobility 	totalTime 	46.25
scalar IntersectionExampleScenario.node[10].veinsmobility 	stopTime 	86.5
scalar IntersectionExampleScenario.node[10].veinsmobility 	minSpeed 	5.137186050415
scalar IntersectionExampleScenario.node[10].veinsmobility 	maxSpeed 	15.875
scalar IntersectionExampleScenario.node[10].veinsmobility 	totalDistance 	543.94045710188
scalar IntersectionExampleScenario.node[10].veinsmobility 	totalCO2Emission 	136.56164060886
scalar IntersectionExampleScenario.node[11].appl 	VehicleRemoved 	0
scalar IntersectionExampleScenario.node[11].appl 	ArrivedAtDest 	1
scalar IntersectionExampleScenario.node[11].appl 	IntersectionEnterTime 	44
scalar IntersectionExampleScenario.node[11].appl 	IntersectionExitTime 	71.754045656795
scalar IntersectionExampleScenario.node[11].appl 	NumberOfCollisions 	0
scalar IntersectionExampleScenario.node[11].nic.phy80211p 	busyTime 	0
scalar IntersectionExampleScenario.node[11].nic.mac1609_4 	ReceivedUnicastPackets 	0
scalar IntersectionExampleScenario.node[11].nic.mac1609_4 	ReceivedBroadcasts 	0
scalar IntersectionExampleScenario.node[11].nic.mac1609_4 	SentPackets 	0
scalar IntersectionExampleScenario.node[11].nic.mac1609_4 	SNIRLostPackets 	0
scalar IntersectionExampleScenario.node[11].nic.mac1609_4 	RXTXLostPackets 	0
scalar IntersectionExampleScenario.node[11].nic.mac1609_4 	TotalLostPackets 	0
scalar IntersectionExampleScenario.node[11].nic.mac1609_4 	DroppedPacketsInMac 	0
scalar IntersectionExampleScenario.node[11].nic.mac1609_4 	TooLittleTime 	0
scalar IntersectionExampleScenario.node[11].nic.mac1609_4 	TimesIntoBackoff 	0
scalar IntersectionExampleScenario.node[11].nic.mac1609_4 	SlotsBackoff 	0
scalar IntersectionExampleScenario.node[11].nic.mac1609_4 	NumInternalContention 	0
scalar IntersectionExampleScenario.node[11].nic.mac1609_4 	totalBusyTime 	0
scalar IntersectionExampleScenario.node[11].veinsmobility 	startTime 	44
scalar IntersectionExampleScenario.node[11].veinsmobility 	totalTime 	44.75
scalar IntersectionExampleScenario.node[11].veinsmobility 	stopTime 	89
scalar IntersectionExampleScenario.node[11].veinsmobility 	minSpeed 	5.6500000953674
scalar IntersectionExampleScenario.node[11].veinsmobility 	maxSpeed 	15.02499961853
scalar IntersectionExampleScenario.node[11].veinsmobility 	totalDistance 	556.21199023999
scalar IntersectionExampleScenario.node[11].veinsmobility 	totalCO2Emission 	125.33130523438
scalar IntersectionExampleScenario.node[9].appl 	VehicleRemoved 	0
scalar IntersectionExampleScenario.node[9].appl 	ArrivedAtDest 	1
scalar IntersectionExampleScenario.node[9].appl 	IntersectionEnterTime 	39
scalar IntersectionExampleScenario.node[9].appl 	IntersectionExitTime 	73.531109612988
scalar IntersectionExampleScenario.node[9].appl 	NumberOfCollisions 	0
scalar IntersectionExampleScenario.node[9].nic.phy80211p 	busyTime 	0
scalar IntersectionExampleScenario.node[9].nic.mac1609_4 	ReceivedUnicastPackets 	0
scalar IntersectionExampleScenario.node[9].nic.mac1609_4 	ReceivedBroadcasts 	0
scalar IntersectionExampleScenario.node[9].nic.mac1609_4 	SentPackets 	0
scalar IntersectionExampleScenario.node[9].nic.mac1609_4 	SNIRLostPackets 	0
scalar IntersectionExampleScenario.node[9].nic.mac1609_4 	RXTXLostPackets 	0
scalar IntersectionExampleScenario.node[9].nic.mac1609_4 	TotalLostPackets 	0
scalar IntersectionExampleScenario.node[9].nic.mac1609_4 	DroppedPacketsInMac 	0
scalar IntersectionExampleScenario.node[9].nic.mac1609_4 	TooLittleTime 	0
scalar IntersectionExampleScenario.node[9].nic.mac1609_4 	TimesIntoBackoff 	0
scalar IntersectionExampleScenario.node[9].nic.mac1609_4 	SlotsBackoff 	0
scalar IntersectionExampleScenario.node[9].nic.mac1609_4 	NumInternalContention 	0
scalar IntersectionExampleScenario.node[9].nic.mac1609_4 	totalBusyTime 	0
scalar IntersectionExampleScenario.node[9].veinsmobility 	startTime 	39
scalar IntersectionExampleScenario.node[9].veinsmobility 	totalTime 	51
scalar IntersectionExampleScenario.node[9].veinsmobility 	stopTime 	90.25
scalar IntersectionExampleScenario.node[9].veinsmobility 	minSpeed 	0
scalar IntersectionExampleScenario.node[9].veinsmobility 	maxSpeed 	15.875
scalar IntersectionExampleScenario.node[9].veinsmobility 	totalDistance 	545.84717465789
scalar IntersectionExampleScenario.node[9].veinsmobility 	totalCO2Emission 	146.08223147963
scalar IntersectionExampleScenario.node[7].appl 	VehicleRemoved 	0
scalar IntersectionExampleScenario.node[7].appl 	ArrivedAtDest 	1
scalar IntersectionExampleScenario.node[7].appl 	IntersectionEnterTime 	33.5
scalar IntersectionExampleScenario.node[7].appl 	IntersectionExitTime 	74.313072649209
scalar IntersectionExampleScenario.node[7].appl 	NumberOfCollisions 	0
scalar IntersectionExampleScenario.node[7].nic.phy80211p 	busyTime 	0
scalar IntersectionExampleScenario.node[7].nic.mac1609_4 	ReceivedUnicastPackets 	0
scalar IntersectionExampleScenario.node[7].nic.mac1609_4 	ReceivedBroadcasts 	0
scalar IntersectionExampleScenario.node[7].nic.mac1609_4 	SentPackets 	0
scalar IntersectionExampleScenario.node[7].nic.mac1609_4 	SNIRLostPackets 	0
scalar IntersectionExampleScenario.node[7].nic.mac1609_4 	RXTXLostPackets 	0
scalar IntersectionExampleScenario.node[7].nic.mac1609_4 	TotalLostPackets 	0
scalar IntersectionExampleScenario.node[7].nic.mac1609_4 	DroppedPacketsInMac 	0
scalar IntersectionExampleScenario.node[7].nic.mac1609_4 	TooLittleTime 	0
scalar IntersectionExampleScenario.node[7].nic.mac1609_4 	TimesIntoBackoff 	0
scalar IntersectionExampleScenario.node[7].nic.mac1609_4 	SlotsBackoff 	0
scalar IntersectionExampleScenario.node[7].nic.mac1609_4 	NumInternalContention 	0
scalar IntersectionExampleScenario.node[7].nic.mac1609_4 	totalBusyTime 	0
scalar IntersectionExampleScenario.node[7].veinsmobility 	startTime 	33.5
scalar IntersectionExampleScenario.node[7].veinsmobility 	totalTime 	56.75
scalar IntersectionExampleScenario.node[7].veinsmobility 	stopTime 	90.5
scalar IntersectionExampleScenario.node[7].veinsmobility 	minSpeed 	0
scalar IntersectionExampleScenario.node[7].veinsmobility 	maxSpeed 	15.64999961853
scalar IntersectionExampleScenario.node[7].veinsmobility 	totalDistance 	553.04892730713
scalar IntersectionExampleScenario.node[7].veinsmobility 	totalCO2Emission 	149.41822809001
scalar IntersectionExampleScenario.node[12].appl 	VehicleRemoved 	0
scalar IntersectionExampleScenario.node[12].appl 	ArrivedAtDest 	1
scalar IntersectionExampleScenario.node[12].appl 	IntersectionEnterTime 	47.25
scalar IntersectionExampleScenario.node[12].appl 	IntersectionExitTime 	75.771892064076
scalar IntersectionExampleScenario.node[12].appl 	NumberOfCollisions 	0
scalar IntersectionExampleScenario.node[12].nic.phy80211p 	busyTime 	0
scalar IntersectionExampleScenario.node[12].nic.mac1609_4 	ReceivedUnicastPackets 	0
scalar IntersectionExampleScenario.node[12].nic.mac1609_4 	ReceivedBroadcasts 	0
scalar IntersectionExampleScenario.node[12].nic.mac1609_4 	SentPackets 	0
scalar IntersectionExampleScenario.node[12].nic.mac1609_4 	SNIRLostPackets 	0
scalar IntersectionExampleScenario.node[12].nic.mac1609_4 	RXTXLostPackets 	0
scalar IntersectionExampleScenario.node[12].nic.mac1609_4 	TotalLostPackets 	0
scalar IntersectionExampleScenario.node[12].nic.mac1609_4 	DroppedPacketsInMac 	0
scalar IntersectionExampleScenario.node[12].nic.mac1609_4 	TooLittleTime 	0
scalar IntersectionExampleScenario.node[12].nic.mac1609_4 	TimesIntoBackoff 	0
scalar IntersectionExampleScenario.node[12].nic.mac1609_4 	SlotsBackoff 	0
scalar IntersectionExampleScenario.node[12].nic.mac1609_4 	NumInternalContention 	0
scalar IntersectionExampleScenario.node[12].nic.mac1609_4 	totalBusyTime 	0
scalar IntersectionExampleScenario.node[12].veinsmobility 	startTime 	47.25
scalar IntersectionExampleScenario.node[12].veinsmobility 	totalTime 	44.25
scalar IntersectionExampleScenario.node[12].veinsmobility 	stopTime 	91.75
scalar IntersectionExampleScenario.node[12].veinsmobility 	minSpeed 	3.1946249008179
scalar IntersectionExampleScenario.node[12].veinsmobility 	maxSpeed 	16.89999961853
scalar IntersectionExampleScenario.node[12].veinsmobility 	totalDistance 	543.50868844514
scalar IntersectionExampleScenario.node[12].veinsmobility 	totalCO2Emission 	144.1174780708
scalar IntersectionExampleScenario.node[13].appl 	VehicleRemoved 	0
scalar IntersectionExampleScenario.node[13].appl 	ArrivedAtDest 	1
scalar IntersectionExampleScenario.node[13].appl 	IntersectionEnterTime 	47.25
scalar IntersectionExampleScenario.node[13].appl 	IntersectionExitTime 	76.566380892764
scalar IntersectionExampleScenario.node[13].appl 	NumberOfCollisions 	0
scalar IntersectionExampleScenario.node[13].nic.phy80211p 	busyTime 	0
scalar IntersectionExampleScenario.node[13].nic.mac1609_4 	ReceivedUnicastPackets 	0
scalar IntersectionExampleScenario.node[13].nic.mac1609_4 	ReceivedBroadcasts 	0
scalar IntersectionExampleScenario.node[13].nic.mac1609_4 	SentPackets 	0
scalar IntersectionExampleScenario.node[13].nic.mac1609_4 	SNIRLostPackets 	0
scalar IntersectionExampleScenario.node[13].nic.mac1609_4 	RXTXLostPackets 	0
scalar IntersectionExampleScenario.node[13].nic.mac1609_4 	TotalLostPackets 	0
scalar IntersectionExampleScenario.node[13].nic.mac1609_4 	DroppedPacketsInMac 	0
scalar IntersectionExampleScenario.node[13].nic.mac1609_4 	TooLittleTime 	0
scalar IntersectionExampleScenario.node[13].nic.mac1609_4 	TimesIntoBackoff 	0
scalar IntersectionExampleScenario.node[13].nic.mac1609_4 	SlotsBackoff 	0
scalar IntersectionExampleScenario.node[13].nic.mac1609_4 	NumInternalContention 	0
scalar IntersectionExampleScenario.node[13].nic.mac1609_4 	totalBusyTime 	0
scalar IntersectionExampleScenario.node[13].veinsmobility 	startTime 	47.25
scalar IntersectionExampleScenario.node[13].veinsmobility 	totalTime 	47.25
scalar IntersectionExampleScenario.node[13].veinsmobility 	stopTime 	94.75
scalar IntersectionExampleScenario.node[13].veinsmobility 	minSpeed 	3.9096510410309
scalar IntersectionExampleScenario.node[13].veinsmobility 	maxSpeed 	15.02499961853
scalar IntersectionExampleScenario.node[13].veinsmobility 	totalDistance 	550.59159889735
scalar IntersectionExampleScenario.node[13].veinsmobility 	totalCO2Emission 	134.56602511484
scalar IntersectionExampleScenario.node[15].appl 	VehicleRemoved 	0
scalar IntersectionExampleScenario.node[15].appl 	ArrivedAtDest 	1
scalar IntersectionExampleScenario.node[15].appl 	IntersectionEnterTime 	55.25
scalar IntersectionExampleScenario.node[15].appl 	IntersectionExitTime 	79.608060634608
scalar IntersectionExampleScenario.node[15].appl 	NumberOfCollisions 	0
scalar IntersectionExampleScenario.node[15].nic.phy80211p 	busyTime 	0
scalar IntersectionExampleScenario.node[15].nic.mac1609_4 	ReceivedUnicastPackets 	0
scalar IntersectionExampleScenario.node[15].nic.mac1609_4 	ReceivedBroadcasts 	0
scalar IntersectionExampleScenario.node[15].nic.mac1609_4 	SentPackets 	0
scalar IntersectionExampleScenario.node[15].nic.mac1609_4 	SNIRLostPackets 	0
scalar IntersectionExampleScenario.node[15].nic.mac1609_4 	RXTXLostPackets 	0
scalar IntersectionExampleScenario.node[15].nic.mac1609_4 	TotalLostPackets 	0
scalar IntersectionExampleScenario.node[15].nic.mac1609_4 	DroppedPacketsInMac 	0
scalar IntersectionExampleScenario.node[15].nic.mac1609_4 	TooLittleTime 	0
scalar IntersectionExampleScenario.node[15].nic.mac1609_4 	TimesIntoBackoff 	0
scalar IntersectionExampleScenario.node[15].nic.mac1609_4 	SlotsBackoff 	0
scalar IntersectionExampleScenario.node[15].nic.mac1609_4 	NumInternalContention 	0
scalar IntersectionExampleScenario.node[15].nic.mac1609_4 	totalBusyTime 	0
scalar IntersectionExampleScenario.node[15].veinsmobility 	startTime 	55.25
scalar IntersectionExampleScenario.node[15].veinsmobility 	totalTime 	41.25
scalar IntersectionExampleScenario.node[15].veinsmobility 	stopTime 	96.75
scalar IntersectionExampleScenario.node[15].veinsmobility 	minSpeed 	5.6500000953674
scalar IntersectionExampleScenario.node[15].veinsmobility 	maxSpeed 	15.175057411194
scalar IntersectionExampleScenario.node[15].veinsmobility 	totalDistance 	550.98423489155
scalar IntersectionExampleScenario.node[15].veinsmobility 	totalCO2Emission 	126.76321702742
scalar IntersectionExampleScenario.node[16].appl 	VehicleRemoved 	0
scalar IntersectionExampleScenario.node[16].appl 	ArrivedAtDest 	1
scalar IntersectionExampleScenario.node[16].appl 	IntersectionEnterTime 	58.75
scalar IntersectionExampleScenario.node[16].appl 	IntersectionExitTime 	82.798413441604
scalar IntersectionExampleScenario.node[16].appl 	NumberOfCollisions 	0
scalar IntersectionExampleScenario.node[16].nic.phy80211p 	busyTime 	0
scalar IntersectionExampleScenario.node[16].nic.mac1609_4 	ReceivedUnicastPackets 	0
scalar IntersectionExampleScenario.node[16].nic.mac1609_4 	ReceivedBroadcasts 	0
scalar IntersectionExampleScenario.node[16].nic.mac1609_4 	SentPackets 	0
scalar IntersectionExampleScenario.node[16].nic.mac1609_4 	SNIRLostPackets 	0
scalar IntersectionExampleScenario.node[16].nic.mac1609_4 	RXTXLostPackets 	0
scalar IntersectionExampleScenario.node[16].nic.mac1609_4 	TotalLostPackets 	0
scalar IntersectionExampleScenario.node[16].nic.mac1609_4 	DroppedPacketsInMac 	0
scalar IntersectionExampleScenario.node[16].nic.mac1609_4 	TooLittleTime 	0
scalar IntersectionExampleScenario.node[16].nic.mac1609_4 	TimesIntoBackoff 	0
scalar IntersectionExampleScenario.node[16].nic.mac1609_4 	SlotsBackoff 	0
scalar IntersectionExampleScenario.node[16].nic.mac1609_4 	NumInternalContention 	0
scalar IntersectionExampleScenario.node[16].nic.mac1609_4 	totalBusyTime 	0
scalar IntersectionExampleScenario.node[16].veinsmobility 	startTime 	58.75
scalar IntersectionExampleScenario.node[16].veinsmobility 	totalTime 	40
scalar IntersectionExampleScenario.node[16].veinsmobility 	stopTime 	99
scalar IntersectionExampleScenario.node[16].veinsmobility 	minSpeed 	5.6500000953674
scalar IntersectionExampleScenario.node[16].veinsmobility 	maxSpeed 	15.655222892761
scalar IntersectionExampleScenario.node[16].veinsmobility 	totalDistance 	559.98219031155
scalar IntersectionExampleScenario.node[16].veinsmobility 	totalCO2Emission 	125.4816371266
scalar IntersectionExampleScenario.node[14].appl 	VehicleRemoved 	0
scalar IntersectionExampleScenario.node[14].appl 	ArrivedAtDest 	1
scalar IntersectionExampleScenario.node[14].appl 	IntersectionEnterTime 	54.25
scalar IntersectionExampleScenario.node[14].appl 	IntersectionExitTime 	87.290793925669
scalar IntersectionExampleScenario.node[14].appl 	NumberOfCollisions 	0
scalar IntersectionExampleScenario.node[14].nic.phy80211p 	busyTime 	0
scalar IntersectionExampleScenario.node[14].nic.mac1609_4 	ReceivedUnicastPackets 	0
scalar IntersectionExampleScenario.node[14].nic.mac1609_4 	ReceivedBroadcasts 	0
scalar IntersectionExampleScenario.node[14].nic.mac1609_4 	SentPackets 	0
scalar IntersectionExampleScenario.node[14].nic.mac1609_4 	SNIRLostPackets 	0
scalar IntersectionExampleScenario.node[14].nic.mac1609_4 	RXTXLostPackets 	0
scalar IntersectionExampleScenario.node[14].nic.mac1609_4 	TotalLostPackets 	0
scalar IntersectionExampleScenario.node[14].nic.mac1609_4 	DroppedPacketsInMac 	0
scalar IntersectionExampleScenario.node[14].nic.mac1609_4 	TooLittleTime 	0
scalar IntersectionExampleScenario.node[14].nic.mac1609_4 	TimesIntoBackoff 	0
scalar IntersectionExampleScenario.node[14].nic.mac1609_4 	SlotsBackoff 	0
scalar IntersectionExampleScenario.node[14].nic.mac1609_4 	NumInternalContention 	0
scalar IntersectionExampleScenario.node[14].nic.mac1609_4 	totalBusyTime 	0
scalar IntersectionExampleScenario.node[14].veinsmobility 	startTime 	54.25
scalar IntersectionExampleScenario.node[14].veinsmobility 	totalTime 	50
scalar IntersectionExampleScenario.node[14].veinsmobility 	stopTime 	104.5
scalar IntersectionExampleScenario.node[14].veinsmobility 	minSpeed 	0
scalar IntersectionExampleScenario.node[14].veinsmobility 	maxSpeed 	14.75
scalar IntersectionExampleScenario.node[14].veinsmobility 	totalDistance 	550.34266771426
scalar IntersectionExampleScenario.node[14].veinsmobility 	totalCO2Emission 	135.08796746964
scalar IntersectionExampleScenario.node[17].appl 	VehicleRemoved 	0
scalar IntersectionExampleScenario.node[17].appl 	ArrivedAtDest 	1
scalar IntersectionExampleScenario.node[17].appl 	IntersectionEnterTime 	59.75
scalar IntersectionExampleScenario.node[17].appl 	IntersectionExitTime 	97.615781839093
scalar IntersectionExampleScenario.node[17].appl 	NumberOfCollisions 	0
scalar IntersectionExampleScenario.node[17].nic.phy80211p 	busyTime 	0
scalar IntersectionExampleScenario.node[17].nic.mac1609_4 	ReceivedUnicastPackets 	0
scalar IntersectionExampleScenario.node[17].nic.mac1609_4 	ReceivedBroadcasts 	0
scalar IntersectionExampleScenario.node[17].nic.mac1609_4 	SentPackets 	0
scalar IntersectionExampleScenario.node[17].nic.mac1609_4 	SNIRLostPackets 	0
scalar IntersectionExampleScenario.node[17].nic.mac1609_4 	RXTXLostPackets 	0
scalar IntersectionExampleScenario.node[17].nic.mac1609_4 	TotalLostPackets 	0
scalar IntersectionExampleScenario.node[17].nic.mac1609_4 	DroppedPacketsInMac 	0
scalar IntersectionExampleScenario.node[17].nic.mac1609_4 	TooLittleTime 	0
scalar IntersectionExampleScenario.node[17].nic.mac1609_4 	TimesIntoBackoff 	0
scalar IntersectionExampleScenario.node[17].nic.mac1609_4 	SlotsBackoff 	0
scalar IntersectionExampleScenario.node[17].nic.mac1609_4 	NumInternalContention 	0
scalar IntersectionExampleScenario.node[17].nic.mac1609_4 	totalBusyTime 	0
scalar IntersectionExampleScenario.node[17].veinsmobility 	startTime 	59.75
scalar IntersectionExampleScenario.node[17].veinsmobility 	totalTime 	53.75
scalar IntersectionExampleScenario.node[17].veinsmobility 	stopTime 	113.75
scalar IntersectionExampleScenario.node[17].veinsmobility 	minSpeed 	0
scalar IntersectionExampleScenario.node[17].veinsmobility 	maxSpeed 	16.5
scalar IntersectionExampleScenario.node[17].veinsmobility 	totalDistance 	542.59136105925
scalar IntersectionExampleScenario.node[17].veinsmobility 	totalCO2Emission 	151.49730678179
scalar IntersectionExampleScenario.node[19].appl 	VehicleRemoved 	0
scalar IntersectionExampleScenario.node[19].appl 	ArrivedAtDest 	1
scalar IntersectionExampleScenario.node[19].appl 	IntersectionEnterTime 	73
scalar IntersectionExampleScenario.node[19].appl 	IntersectionExitTime 	100.50404040664
scalar IntersectionExampleScenario.node[19].appl 	NumberOfCollisions 	0
scalar IntersectionExampleScenario.node[19].nic.phy80211p 	busyTime 	0
scalar IntersectionExampleScenario.node[19].nic.mac1609_4 	ReceivedUnicastPackets 	0
scalar IntersectionExampleScenario.node[19].nic.mac1609_4 	ReceivedBroadcasts 	0
scalar IntersectionExampleScenario.node[19].nic.mac1609_4 	SentPackets 	0
scalar IntersectionExampleScenario.node[19].nic.mac1609_4 	SNIRLostPackets 	0
scalar IntersectionExampleScenario.node[19].nic.mac1609_4 	RXTXLostPackets 	0
scalar IntersectionExampleScenario.node[19].nic.mac1609_4 	TotalLostPackets 	0
scalar IntersectionExampleScenario.node[19].nic.mac1609_4 	DroppedPacketsInMac 	0
scalar IntersectionExampleScenario.node[19].nic.mac1609_4 	TooLittleTime 	0
scalar IntersectionExampleScenario.node[19].nic.mac1609_4 	TimesIntoBackoff 	0
scalar IntersectionExampleScenario.node[19].nic.mac1609_4 	SlotsBackoff 	0
scalar IntersectionExampleScenario.node[19].nic.mac1609_4 	NumInternalContention 	0
scalar IntersectionExampleScenario.node[19].nic.mac1609_4 	totalBusyTime 	0
scalar IntersectionExampleScenario.node[19].veinsmobility 	startTime 	73
scalar IntersectionExampleScenario.node[19].veinsmobility 	totalTime 	44
scalar IntersectionExampleScenario.node[19].veinsmobility 	stopTime 	117.25
scalar IntersectionExampleScenario.node[19].veinsmobility 	minSpeed 	5.0957431793213
scalar IntersectionExampleScenario.node[19].veinsmobility 	maxSpeed 	15.375
scalar IntersectionExampleScenario.node[19].veinsmobility 	totalDistance 	550.5312981186
scalar IntersectionExampleScenario.node[19].veinsmobility 	totalCO2Emission 	132.6797024822
scalar IntersectionExampleScenario.node[18].appl 	VehicleRemoved 	0
scalar IntersectionExampleScenario.node[18].appl 	ArrivedAtDest 	1
scalar IntersectionExampleScenario.node[18].appl 	IntersectionEnterTime 	71.75
scalar IntersectionExampleScenario.node[18].appl 	IntersectionExitTime 	109.25740653422
scalar IntersectionExampleScenario.node[18].appl 	NumberOfCollisions 	0
scalar IntersectionExampleScenario.node[18].nic.phy80211p 	busyTime 	0
scalar IntersectionExampleScenario.node[18].nic.mac1609_4 	ReceivedUnicastPackets 	0
scalar IntersectionExampleScenario.node[18].nic.mac1609_4 	ReceivedBroadcasts 	0
scalar IntersectionExampleScenario.node[18].nic.mac1609_4 	SentPackets 	0
scalar IntersectionExampleScenario.node[18].nic.mac1609_4 	SNIRLostPackets 	0
scalar IntersectionExampleScenario.node[18].nic.mac1609_4 	RXTXLostPackets 	0
scalar IntersectionExampleScenario.node[18].nic.mac1609_4 	TotalLostPackets 	0
scalar IntersectionExampleScenario.node[18].nic.mac1609_4 	DroppedPacketsInMac 	0
scalar IntersectionExampleScenario.node[18].nic.mac1609_4 	TooLittleTime 	0
scalar IntersectionExampleScenario.node[18].nic.mac1609_4 	TimesIntoBackoff 	0
scalar IntersectionExampleScenario.node[18].nic.mac1609_4 	SlotsBackoff 	0
scalar IntersectionExampleScenario.node[18].nic.mac1609_4 	NumInternalContention 	0
scalar IntersectionExampleScenario.node[18].nic.mac1609_4 	totalBusyTime 	0
scalar IntersectionExampleScenario.node[18].veinsmobility 	startTime 	71.75
scalar IntersectionExampleScenario.node[18].veinsmobility 	totalTime 	53.5
scalar IntersectionExampleScenario.node[18].veinsmobility 	stopTime 	125.5
scalar IntersectionExampleScenario.node[18].veinsmobility 	minSpeed 	0
scalar IntersectionExampleScenario.node[18].veinsmobility 	maxSpeed 	15.64999961853
scalar IntersectionExampleScenario.node[18].veinsmobility 	totalDistance 	553.04892730713
scalar IntersectionExampleScenario.node[18].veinsmobility 	totalCO2Emission 	146.25597809001
scalar IntersectionExampleScenario.node[20].appl 	VehicleRemoved 	0
scalar IntersectionExampleScenario.node[20].appl 	ArrivedAtDest 	1
scalar IntersectionExampleScenario.node[20].appl 	IntersectionEnterTime 	73.75
scalar IntersectionExampleScenario.node[20].appl 	IntersectionExitTime 	110.29335409106
scalar IntersectionExampleScenario.node[20].appl 	NumberOfCollisions 	0
scalar IntersectionExampleScenario.node[20].nic.phy80211p 	busyTime 	0
scalar IntersectionExampleScenario.node[20].nic.mac1609_4 	ReceivedUnicastPackets 	0
scalar IntersectionExampleScenario.node[20].nic.mac1609_4 	ReceivedBroadcasts 	0
scalar IntersectionExampleScenario.node[20].nic.mac1609_4 	SentPackets 	0
scalar IntersectionExampleScenario.node[20].nic.mac1609_4 	SNIRLostPackets 	0
scalar IntersectionExampleScenario.node[20].nic.mac1609_4 	RXTXLostPackets 	0
scalar IntersectionExampleScenario.node[20].nic.mac1609_4 	TotalLostPackets 	0
scalar IntersectionExampleScenario.node[20].nic.mac1609_4 	DroppedPacketsInMac 	0
scalar IntersectionExampleScenario.node[20].nic.mac1609_4 	TooLittleTime 	0
scalar IntersectionExampleScenario.node[20].nic.mac1609_4 	TimesIntoBackoff 	0
scalar IntersectionExampleScenario.node[20].nic.mac1609_4 	SlotsBackoff 	0
scalar IntersectionExampleScenario.node[20].nic.mac1609_4 	NumInternalContention 	0
scalar IntersectionExampleScenario.node[20].nic.mac1609_4 	totalBusyTime 	0
scalar IntersectionExampleScenario.node[20].veinsmobility 	startTime 	73.75
scalar IntersectionExampleScenario.node[20].veinsmobility 	totalTime 	52
scalar IntersectionExampleScenario.node[20].veinsmobility 	stopTime 	126
scalar IntersectionExampleScenario.node[20].veinsmobility 	minSpeed 	0
scalar IntersectionExampleScenario.node[20].veinsmobility 	maxSpeed 	16.625
scalar IntersectionExampleScenario.node[20].veinsmobility 	totalDistance 	568.0032222167
scalar IntersectionExampleScenario.node[20].veinsmobility 	totalCO2Emission 	153.11586065939
scalar IntersectionExampleScenario.node[23].appl 	VehicleRemoved 	0
scalar IntersectionExampleScenario.node[23].appl 	ArrivedAtDest 	1
scalar IntersectionExampleScenario.node[23].appl 	IntersectionEnterTime 	88.5
scalar IntersectionExampleScenario.node[23].appl 	IntersectionExitTime 	111.75183175947
scalar IntersectionExampleScenario.node[23].appl 	NumberOfCollisions 	0
scalar IntersectionExampleScenario.node[23].nic.phy80211p 	busyTime 	0
scalar IntersectionExampleScenario.node[23].nic.mac1609_4 	ReceivedUnicastPackets 	0
scalar IntersectionExampleScenario.node[23].nic.mac1609_4 	ReceivedBroadcasts 	0
scalar IntersectionExampleScenario.node[23].nic.mac1609_4 	SentPackets 	0
scalar IntersectionExampleScenario.node[23].nic.mac1609_4 	SNIRLostPackets 	0
scalar IntersectionExampleScenario.node[23].nic.mac1609_4 	RXTXLostPackets 	0
scalar IntersectionExampleScenario.node[23].nic.mac1609_4 	TotalLostPackets 	0
scalar IntersectionExampleScenario.node[23].nic.mac1609_4 	DroppedPacketsInMac 	0
scalar IntersectionExampleScenario.node[23].nic.mac1609_4 	TooLittleTime 	0
scalar IntersectionExampleScenario.node[23].nic.mac1609_4 	TimesIntoBackoff 	0
scalar IntersectionExampleScenario.node[23].nic.mac1609_4 	SlotsBackoff 	0
scalar IntersectionExampleScenario.node[23].nic.mac1609_4 	NumInternalContention 	0
scalar IntersectionExampleScenario.node[23].nic.mac1609_4 	totalBusyTime 	0
scalar IntersectionExampleScenario.node[23].veinsmobility 	startTime 	88.5
scalar IntersectionExampleScenario.node[23].veinsmobility 	totalTime 	39.75
scalar IntersectionExampleScenario.node[23].veinsmobility 	stopTime 	128.5
scalar IntersectionExampleScenario.node[23].veinsmobility 	minSpeed 	5.6500000953674
scalar IntersectionExampleScenario.node[23].veinsmobility 	maxSpeed 	15.861122131348
scalar IntersectionExampleScenario.node[23].veinsmobility 	totalDistance 	543.71635226576
scalar IntersectionExampleScenario.node[23].veinsmobility 	totalCO2Emission 	127.47057009871
scalar IntersectionExampleScenario.node[21].appl 	VehicleRemoved 	0
scalar IntersectionExampleScenario.node[21].appl 	ArrivedAtDest 	1
scalar IntersectionExampleScenario.node[21].appl 	IntersectionEnterTime 	74.5
scalar IntersectionExampleScenario.node[21].appl 	IntersectionExitTime 	113.54699838904
scalar IntersectionExampleScenario.node[21].appl 	NumberOfCollisions 	0
scalar IntersectionExampleScenario.node[21].nic.phy80211p 	busyTime 	0
scalar IntersectionExampleScenario.node[21].nic.mac1609_4 	ReceivedUnicastPackets 	0
scalar IntersectionExampleScenario.node[21].nic.mac1609_4 	ReceivedBroadcasts 	0
scalar IntersectionExampleScenario.node[21].nic.mac1609_4 	SentPackets 	0
scalar IntersectionExampleScenario.node[21].nic.mac1609_4 	SNIRLostPackets 	0
scalar IntersectionExampleScenario.node[21].nic.mac1609_4 	RXTXLostPackets 	0
scalar IntersectionExampleScenario.node[21].nic.mac1609_4 	TotalLostPackets 	0
scalar IntersectionExampleScenario.node[21].nic.mac1609_4 	DroppedPacketsInMac 	0
scalar IntersectionExampleScenario.node[21].nic.mac1609_4 	TooLittleTime 	0
scalar IntersectionExampleScenario.node[21].nic.mac1609_4 	TimesIntoBackoff 	0
scalar IntersectionExampleScenario.node[21].nic.mac1609_4 	SlotsBackoff 	0
scalar IntersectionExampleScenario.node[21].nic.mac1609_4 	NumInternalContention 	0
scalar IntersectionExampleScenario.node[21].nic.mac1609_4 	totalBusyTime 	0
scalar IntersectionExampleScenario.node[21].veinsmobility 	startTime 	74.5
scalar IntersectionExampleScenario.node[21].veinsmobility 	totalTime 	56.5
scalar IntersectionExampleScenario.node[21].veinsmobility 	stopTime 	131.25
scalar IntersectionExampleScenario.node[21].veinsmobility 	minSpeed 	0
scalar IntersectionExampleScenario.node[21].veinsmobility 	maxSpeed 	14.962892532349
scalar IntersectionExampleScenario.node[21].veinsmobility 	totalDistance 	583.58695130673
scalar IntersectionExampleScenario.node[21].veinsmobility 	totalCO2Emission 	144.29018341175
scalar IntersectionExampleScenario.node[22].appl 	VehicleRemoved 	0
scalar IntersectionExampleScenario.node[22].appl 	ArrivedAtDest 	1
scalar IntersectionExampleScenario.node[22].appl 	IntersectionEnterTime 	82.75
scalar IntersectionExampleScenario.node[22].appl 	IntersectionExitTime 	121.60701893127
scalar IntersectionExampleScenario.node[22].appl 	NumberOfCollisions 	0
scalar IntersectionExampleScenario.node[22].nic.phy80211p 	busyTime 	0
scalar IntersectionExampleScenario.node[22].nic.mac1609_4 	ReceivedUnicastPackets 	0
scalar IntersectionExampleScenario.node[22].nic.mac1609_4 	ReceivedBroadcasts 	0
scalar IntersectionExampleScenario.node[22].nic.mac1609_4 	SentPackets 	0
scalar IntersectionExampleScenario.node[22].nic.mac1609_4 	SNIRLostPackets 	0
scalar IntersectionExampleScenario.node[22].nic.mac1609_4 	RXTXLostPackets 	0
scalar IntersectionExampleScenario.node[22].nic.mac1609_4 	TotalLostPackets 	0
scalar IntersectionExampleScenario.node[22].nic.mac1609_4 	DroppedPacketsInMac 	0
scalar IntersectionExampleScenario.node[22].nic.mac1609_4 	TooLittleTime 	0
scalar IntersectionExampleScenario.node[22].nic.mac1609_4 	TimesIntoBackoff 	0
scalar IntersectionExampleScenario.node[22].nic.mac1609_4 	SlotsBackoff 	0
scalar IntersectionExampleScenario.node[22].nic.mac1609_4 	NumInternalContention 	0
scalar IntersectionExampleScenario.node[22].nic.mac1609_4 	totalBusyTime 	0
scalar IntersectionExampleScenario.node[22].veinsmobility 	startTime 	82.75
scalar IntersectionExampleScenario.node[22].veinsmobility 	totalTime 	55.75
scalar IntersectionExampleScenario.node[22].veinsmobility 	stopTime 	138.75
scalar IntersectionExampleScenario.node[22].veinsmobility 	minSpeed 	0
scalar IntersectionExampleScenario.node[22].veinsmobility 	maxSpeed 	15.25
scalar IntersectionExampleScenario.node[22].veinsmobility 	totalDistance 	543.3859396115
scalar IntersectionExampleScenario.node[22].veinsmobility 	totalCO2Emission 	144.55701551698
scalar IntersectionExampleScenario.node[24].appl 	VehicleRemoved 	0
scalar IntersectionExampleScenario.node[24].appl 	ArrivedAtDest 	1
scalar IntersectionExampleScenario.node[24].appl 	IntersectionEnterTime 	94
scalar IntersectionExampleScenario.node[24].appl 	IntersectionExitTime 	132.79079319965
scalar IntersectionExampleScenario.node[24].appl 	NumberOfCollisions 	0
scalar IntersectionExampleScenario.node[24].nic.phy80211p 	busyTime 	0
scalar IntersectionExampleScenario.node[24].nic.mac1609_4 	ReceivedUnicastPackets 	0
scalar IntersectionExampleScenario.node[24].nic.mac1609_4 	ReceivedBroadcasts 	0
scalar IntersectionExampleScenario.node[24].nic.mac1609_4 	SentPackets 	0
scalar IntersectionExampleScenario.node[24].nic.mac1609_4 	SNIRLostPackets 	0
scalar IntersectionExampleScenario.node[24].nic.mac1609_4 	RXTXLostPackets 	0
scalar IntersectionExampleScenario.node[24].nic.mac1609_4 	TotalLostPackets 	0
scalar IntersectionExampleScenario.node[24].nic.mac1609_4 	DroppedPacketsInMac 	0
scalar IntersectionExampleScenario.node[24].nic.mac1609_4 	TooLittleTime 	0
scalar IntersectionExampleScenario.node[24].nic.mac1609_4 	TimesIntoBackoff 	0
scalar IntersectionExampleScenario.node[24].nic.mac1609_4 	SlotsBackoff 	0
scalar IntersectionExampleScenario.node[24].nic.mac1609_4 	NumInternalContention 	0
scalar IntersectionExampleScenario.node[24].nic.mac1609_4 	totalBusyTime 	0
scalar IntersectionExampleScenario.node[24].veinsmobility 	startTime 	94
scalar IntersectionExampleScenario.node[24].veinsmobility 	totalTime 	54.75
scalar IntersectionExampleScenario.node[24].veinsmobility 	stopTime 	149
scalar IntersectionExampleScenario.node[24].veinsmobility 	minSpeed 	0
scalar IntersectionExampleScenario.node[24].veinsmobility 	maxSpeed 	16
scalar IntersectionExampleScenario.node[24].veinsmobility 	totalDistance 	551.89847689104
scalar IntersectionExampleScenario.node[24].veinsmobility 	totalCO2Emission 	149.96893546883
scalar IntersectionExampleScenario.node[25].appl 	VehicleRemoved 	0
scalar IntersectionExampleScenario.node[25].appl 	ArrivedAtDest 	1
scalar IntersectionExampleScenario.node[25].appl 	IntersectionEnterTime 	99.75
scalar IntersectionExampleScenario.node[25].appl 	IntersectionExitTime 	134.29769288766
scalar IntersectionExampleScenario.node[25].appl 	NumberOfCollisions 	0
scalar IntersectionExampleScenario.node[25].nic.phy80211p 	busyTime 	0
scalar IntersectionExampleScenario.node[25].nic.mac1609_4 	ReceivedUnicastPackets 	0
scalar IntersectionExampleScenario.node[25].nic.mac1609_4 	ReceivedBroadcasts 	0
scalar IntersectionExampleScenario.node[25].nic.mac1609_4 	SentPackets 	0
scalar IntersectionExampleScenario.node[25].nic.mac1609_4 	SNIRLostPackets 	0
scalar IntersectionExampleScenario.node[25].nic.mac1609_4 	RXTXLostPackets 	0
scalar IntersectionExampleScenario.node[25].nic.mac1609_4 	TotalLostPackets 	0
scalar IntersectionExampleScenario.node[25].nic.mac1609_4 	DroppedPacketsInMac 	0
scalar IntersectionExampleScenario.node[25].nic.mac1609_4 	TooLittleTime 	0
scalar IntersectionExampleScenario.node[25].nic.mac1609_4 	TimesIntoBackoff 	0
scalar IntersectionExampleScenario.node[25].nic.mac1609_4 	SlotsBackoff 	0
scalar IntersectionExampleScenario.node[25].nic.mac1609_4 	NumInternalContention 	0
scalar IntersectionExampleScenario.node[25].nic.mac1609_4 	totalBusyTime 	0
scalar IntersectionExampleScenario.node[25].veinsmobility 	startTime 	99.75
scalar IntersectionExampleScenario.node[25].veinsmobility 	totalTime 	50.25
scalar IntersectionExampleScenario.node[25].veinsmobility 	stopTime 	150.25
scalar IntersectionExampleScenario.node[25].veinsmobility 	minSpeed 	0
scalar IntersectionExampleScenario.node[25].veinsmobility 	maxSpeed 	15.64999961853
scalar IntersectionExampleScenario.node[25].veinsmobility 	totalDistance 	551.64819335938
scalar IntersectionExampleScenario.node[25].veinsmobility 	totalCO2Emission 	140.12067196234
scalar IntersectionExampleScenario.node[26].appl 	VehicleRemoved 	0
scalar IntersectionExampleScenario.node[26].appl 	ArrivedAtDest 	1
scalar IntersectionExampleScenario.node[26].appl 	IntersectionEnterTime 	102
scalar IntersectionExampleScenario.node[26].appl 	IntersectionExitTime 	136.3000724226
scalar IntersectionExampleScenario.node[26].appl 	NumberOfCollisions 	0
scalar IntersectionExampleScenario.node[26].nic.phy80211p 	busyTime 	0
scalar IntersectionExampleScenario.node[26].nic.mac1609_4 	ReceivedUnicastPackets 	0
scalar IntersectionExampleScenario.node[26].nic.mac1609_4 	ReceivedBroadcasts 	0
scalar IntersectionExampleScenario.node[26].nic.mac1609_4 	SentPackets 	0
scalar IntersectionExampleScenario.node[26].nic.mac1609_4 	SNIRLostPackets 	0
scalar IntersectionExampleScenario.node[26].nic.mac1609_4 	RXTXLostPackets 	0
scalar IntersectionExampleScenario.node[26].nic.mac1609_4 	TotalLostPackets 	0
scalar IntersectionExampleScenario.node[26].nic.mac1609_4 	DroppedPacketsInMac 	0
scalar IntersectionExampleScenario.node[26].nic.mac1609_4 	TooLittleTime 	0
scalar IntersectionExampleScenario.node[26].nic.mac1609_4 	TimesIntoBackoff 	0
scalar IntersectionExampleScenario.node[26].nic.mac1609_4 	SlotsBackoff 	0
scalar IntersectionExampleScenario.node[26].nic.mac1609_4 	NumInternalContention 	0
scalar IntersectionExampleScenario.node[26].nic.mac1609_4 	totalBusyTime 	0
scalar IntersectionExampleScenario.node[26].veinsmobility 	startTime 	102
scalar IntersectionExampleScenario.node[26].veinsmobility 	totalTime 	50.25
scalar IntersectionExampleScenario.node[26].veinsmobility 	stopTime 	152.5
scalar IntersectionExampleScenario.node[26].veinsmobility 	minSpeed 	2.2739419937134
scalar IntersectionExampleScenario.node[26].veinsmobility 	maxSpeed 	16
scalar IntersectionExampleScenario.node[26].veinsmobility 	totalDistance 	568.19722092638
scalar IntersectionExampleScenario.node[26].veinsmobility 	totalCO2Emission 	145.35223763305
scalar IntersectionExampleScenario.node[27].appl 	VehicleRemoved 	0
scalar IntersectionExampleScenario.node[27].appl 	ArrivedAtDest 	1
scalar IntersectionExampleScenario.node[27].appl 	IntersectionEnterTime 	106.25
scalar IntersectionExampleScenario.node[27].appl 	IntersectionExitTime 	144.27861694666
scalar IntersectionExampleScenario.node[27].appl 	NumberOfCollisions 	0
scalar IntersectionExampleScenario.node[27].nic.phy80211p 	busyTime 	0
scalar IntersectionExampleScenario.node[27].nic.mac1609_4 	ReceivedUnicastPackets 	0
scalar IntersectionExampleScenario.node[27].nic.mac1609_4 	ReceivedBroadcasts 	0
scalar IntersectionExampleScenario.node[27].nic.mac1609_4 	SentPackets 	0
scalar IntersectionExampleScenario.node[27].nic.mac1609_4 	SNIRLostPackets 	0
scalar IntersectionExampleScenario.node[27].nic.mac1609_4 	RXTXLostPackets 	0
scalar IntersectionExampleScenario.node[27].nic.mac1609_4 	TotalLostPackets 	0
scalar IntersectionExampleScenario.node[27].nic.mac1609_4 	DroppedPacketsInMac 	0
scalar IntersectionExampleScenario.node[27].nic.mac1609_4 	TooLittleTime 	0
scalar IntersectionExampleScenario.node[27].nic.mac1609_4 	TimesIntoBackoff 	0
scalar IntersectionExampleScenario.node[27].nic.mac1609_4 	SlotsBackoff 	0
scalar IntersectionExampleScenario.node[27].nic.mac1609_4 	NumInternalContention 	0
scalar IntersectionExampleScenario.node[27].nic.mac1609_4 	totalBusyTime 	0
scalar IntersectionExampleScenario.node[27].veinsmobility 	startTime 	106.25
scalar IntersectionExampleScenario.node[27].veinsmobility 	totalTime 	53.25
scalar IntersectionExampleScenario.node[27].veinsmobility 	stopTime 	159.75
scalar IntersectionExampleScenario.node[27].veinsmobility 	minSpeed 	0
scalar IntersectionExampleScenario.node[27].veinsmobility 	maxSpeed 	16.27499961853
scalar IntersectionExampleScenario.node[27].veinsmobility 	totalDistance 	551.21318054199
scalar IntersectionExampleScenario.node[27].veinsmobility 	totalCO2Emission 	151.5169107762
scalar IntersectionExampleScenario.node[29].appl 	VehicleRemoved 	0
scalar IntersectionExampleScenario.node[29].appl 	ArrivedAtDest 	1
scalar IntersectionExampleScenario.node[29].appl 	IntersectionEnterTime 	111
scalar IntersectionExampleScenario.node[29].appl 	IntersectionExitTime 	145.29003868945
scalar IntersectionExampleScenario.node[29].appl 	NumberOfCollisions 	0
scalar IntersectionExampleScenario.node[29].nic.phy80211p 	busyTime 	0
scalar IntersectionExampleScenario.node[29].nic.mac1609_4 	ReceivedUnicastPackets 	0
scalar IntersectionExampleScenario.node[29].nic.mac1609_4 	ReceivedBroadcasts 	0
scalar IntersectionExampleScenario.node[29].nic.mac1609_4 	SentPackets 	0
scalar IntersectionExampleScenario.node[29].nic.mac1609_4 	SNIRLostPackets 	0
scalar IntersectionExampleScenario.node[29].nic.mac1609_4 	RXTXLostPackets 	0
scalar IntersectionExampleScenario.node[29].nic.mac1609_4 	TotalLostPackets 	0
scalar IntersectionExampleScenario.node[29].nic.mac1609_4 	DroppedPacketsInMac 	0
scalar IntersectionExampleScenario.node[29].nic.mac1609_4 	TooLittleTime 	0
scalar IntersectionExampleScenario.node[29].nic.mac1609_4 	TimesIntoBackoff 	0
scalar IntersectionExampleScenario.node[29].nic.mac1609_4 	SlotsBackoff 	0
scalar IntersectionExampleScenario.node[29].nic.mac1609_4 	NumInternalContention 	0
scalar IntersectionExampleScenario.node[29].nic.mac1609_4 	totalBusyTime 	0
scalar IntersectionExampleScenario.node[29].veinsmobility 	startTime 	111
scalar IntersectionExampleScenario.node[29].veinsmobility 	totalTime 	51
scalar IntersectionExampleScenario.node[29].veinsmobility 	stopTime 	162.25
scalar IntersectionExampleScenario.node[29].veinsmobility 	minSpeed 	0
scalar IntersectionExampleScenario.node[29].veinsmobility 	maxSpeed 	15.02499961853
scalar IntersectionExampleScenario.node[29].veinsmobility 	totalDistance 	548.73290250289
scalar IntersectionExampleScenario.node[29].veinsmobility 	totalCO2Emission 	135.49580704162
scalar IntersectionExampleScenario.node[31].appl 	VehicleRemoved 	0
scalar IntersectionExampleScenario.node[31].appl 	ArrivedAtDest 	1
scalar IntersectionExampleScenario.node[31].appl 	IntersectionEnterTime 	129.75
scalar IntersectionExampleScenario.node[31].appl 	IntersectionExitTime 	153.30578630927
scalar IntersectionExampleScenario.node[31].appl 	NumberOfCollisions 	0
scalar IntersectionExampleScenario.node[31].nic.phy80211p 	busyTime 	0
scalar IntersectionExampleScenario.node[31].nic.mac1609_4 	ReceivedUnicastPackets 	0
scalar IntersectionExampleScenario.node[31].nic.mac1609_4 	ReceivedBroadcasts 	0
scalar IntersectionExampleScenario.node[31].nic.mac1609_4 	SentPackets 	0
scalar IntersectionExampleScenario.node[31].nic.mac1609_4 	SNIRLostPackets 	0
scalar IntersectionExampleScenario.node[31].nic.mac1609_4 	RXTXLostPackets 	0
scalar IntersectionExampleScenario.node[31].nic.mac1609_4 	TotalLostPackets 	0
scalar IntersectionExampleScenario.node[31].nic.mac1609_4 	DroppedPacketsInMac 	0
scalar IntersectionExampleScenario.node[31].nic.mac1609_4 	TooLittleTime 	0
scalar IntersectionExampleScenario.node[31].nic.mac1609_4 	TimesIntoBackoff 	0
scalar IntersectionExampleScenario.node[31].nic.mac1609_4 	SlotsBackoff 	0
scalar IntersectionExampleScenario.node[31].nic.mac1609_4 	NumInternalContention 	0
scalar IntersectionExampleScenario.node[31].nic.mac1609_4 	totalBusyTime 	0
scalar IntersectionExampleScenario.node[31].veinsmobility 	startTime 	129.75
scalar IntersectionExampleScenario.node[31].veinsmobility 	totalTime 	40.25
scalar IntersectionExampleScenario.node[31].veinsmobility 	stopTime 	170.25
scalar IntersectionExampleScenario.node[31].veinsmobility 	minSpeed 	5.6500000953674
scalar IntersectionExampleScenario.node[31].veinsmobility 	maxSpeed 	15.64999961853
scalar IntersectionExampleScenario.node[31].veinsmobility 	totalDistance 	545.75283398471
scalar IntersectionExampleScenario.node[31].veinsmobility 	totalCO2Emission 	126.65543267184
scalar IntersectionExampleScenario.node[32].appl 	VehicleRemoved 	0
scalar IntersectionExampleScenario.node[32].appl 	ArrivedAtDest 	1
scalar IntersectionExampleScenario.node[32].appl 	IntersectionEnterTime 	131.5
scalar IntersectionExampleScenario.node[32].appl 	IntersectionExitTime 	155.05988430552
scalar IntersectionExampleScenario.node[32].appl 	NumberOfCollisions 	0
scalar IntersectionExampleScenario.node[32].nic.phy80211p 	busyTime 	0
scalar IntersectionExampleScenario.node[32].nic.mac1609_4 	ReceivedUnicastPackets 	0
scalar IntersectionExampleScenario.node[32].nic.mac1609_4 	ReceivedBroadcasts 	0
scalar IntersectionExampleScenario.node[32].nic.mac1609_4 	SentPackets 	0
scalar IntersectionExampleScenario.node[32].nic.mac1609_4 	SNIRLostPackets 	0
scalar IntersectionExampleScenario.node[32].nic.mac1609_4 	RXTXLostPackets 	0
scalar IntersectionExampleScenario.node[32].nic.mac1609_4 	TotalLostPackets 	0
scalar IntersectionExampleScenario.node[32].nic.mac1609_4 	DroppedPacketsInMac 	0
scalar IntersectionExampleScenario.node[32].nic.mac1609_4 	TooLittleTime 	0
scalar IntersectionExampleScenario.node[32].nic.mac1609_4 	TimesIntoBackoff 	0
scalar IntersectionExampleScenario.node[32].nic.mac1609_4 	SlotsBackoff 	0
scalar IntersectionExampleScenario.node[32].nic.mac1609_4 	NumInternalContention 	0
scalar IntersectionExampleScenario.node[32].nic.mac1609_4 	totalBusyTime 	0
scalar IntersectionExampleScenario.node[32].veinsmobility 	startTime 	131.5
scalar IntersectionExampleScenario.node[32].veinsmobility 	totalTime 	40
scalar IntersectionExampleScenario.node[32].veinsmobility 	stopTime 	171.75
scalar IntersectionExampleScenario.node[32].veinsmobility 	minSpeed 	5.6500000953674
scalar IntersectionExampleScenario.node[32].veinsmobility 	maxSpeed 	15.64999961853
scalar IntersectionExampleScenario.node[32].veinsmobility 	totalDistance 	551.08293139999
scalar IntersectionExampleScenario.node[32].veinsmobility 	totalCO2Emission 	127.67356108991
scalar IntersectionExampleScenario.node[28].appl 	VehicleRemoved 	0
scalar IntersectionExampleScenario.node[28].appl 	ArrivedAtDest 	1
scalar IntersectionExampleScenario.node[28].appl 	IntersectionEnterTime 	109.5
scalar IntersectionExampleScenario.node[28].appl 	IntersectionExitTime 	157.36625815916
scalar IntersectionExampleScenario.node[28].appl 	NumberOfCollisions 	0
scalar IntersectionExampleScenario.node[28].nic.phy80211p 	busyTime 	0
scalar IntersectionExampleScenario.node[28].nic.mac1609_4 	ReceivedUnicastPackets 	0
scalar IntersectionExampleScenario.node[28].nic.mac1609_4 	ReceivedBroadcasts 	0
scalar IntersectionExampleScenario.node[28].nic.mac1609_4 	SentPackets 	0
scalar IntersectionExampleScenario.node[28].nic.mac1609_4 	SNIRLostPackets 	0
scalar IntersectionExampleScenario.node[28].nic.mac1609_4 	RXTXLostPackets 	0
scalar IntersectionExampleScenario.node[28].nic.mac1609_4 	TotalLostPackets 	0
scalar IntersectionExampleScenario.node[28].nic.mac1609_4 	DroppedPacketsInMac 	0
scalar IntersectionExampleScenario.node[28].nic.mac1609_4 	TooLittleTime 	0
scalar IntersectionExampleScenario.node[28].nic.mac1609_4 	TimesIntoBackoff 	0
scalar IntersectionExampleScenario.node[28].nic.mac1609_4 	SlotsBackoff 	0
scalar IntersectionExampleScenario.node[28].nic.mac1609_4 	NumInternalContention 	0
scalar IntersectionExampleScenario.node[28].nic.mac1609_4 	totalBusyTime 	0
scalar IntersectionExampleScenario.node[28].veinsmobility 	startTime 	109.5
scalar IntersectionExampleScenario.node[28].veinsmobility 	totalTime 	63.5
scalar IntersectionExampleScenario.node[28].veinsmobility 	stopTime 	173.25
scalar IntersectionExampleScenario.node[28].veinsmobility 	minSpeed 	0
scalar IntersectionExampleScenario.node[28].veinsmobility 	maxSpeed 	16
scalar IntersectionExampleScenario.node[28].veinsmobility 	totalDistance 	550.43745531192
scalar IntersectionExampleScenario.node[28].veinsmobility 	totalCO2Emission 	159.631406619
scalar IntersectionExampleScenario.node[30].appl 	VehicleRemoved 	0
scalar IntersectionExampleScenario.node[30].appl 	ArrivedAtDest 	1
scalar IntersectionExampleScenario.node[30].appl 	IntersectionEnterTime 	125.5
scalar IntersectionExampleScenario.node[30].appl 	IntersectionExitTime 	159.29413200455
scalar IntersectionExampleScenario.node[30].appl 	NumberOfCollisions 	0
scalar IntersectionExampleScenario.node[30].nic.phy80211p 	busyTime 	0
scalar IntersectionExampleScenario.node[30].nic.mac1609_4 	ReceivedUnicastPackets 	0
scalar IntersectionExampleScenario.node[30].nic.mac1609_4 	ReceivedBroadcasts 	0
scalar IntersectionExampleScenario.node[30].nic.mac1609_4 	SentPackets 	0
scalar IntersectionExampleScenario.node[30].nic.mac1609_4 	SNIRLostPackets 	0
scalar IntersectionExampleScenario.node[30].nic.mac1609_4 	RXTXLostPackets 	0
scalar IntersectionExampleScenario.node[30].nic.mac1609_4 	TotalLostPackets 	0
scalar IntersectionExampleScenario.node[30].nic.mac1609_4 	DroppedPacketsInMac 	0
scalar IntersectionExampleScenario.node[30].nic.mac1609_4 	TooLittleTime 	0
scalar IntersectionExampleScenario.node[30].nic.mac1609_4 	TimesIntoBackoff 	0
scalar IntersectionExampleScenario.node[30].nic.mac1609_4 	SlotsBackoff 	0
scalar IntersectionExampleScenario.node[30].nic.mac1609_4 	NumInternalContention 	0
scalar IntersectionExampleScenario.node[30].nic.mac1609_4 	totalBusyTime 	0
scalar IntersectionExampleScenario.node[30].veinsmobility 	startTime 	125.5
scalar IntersectionExampleScenario.node[30].veinsmobility 	totalTime 	50
scalar IntersectionExampleScenario.node[30].veinsmobility 	stopTime 	175.75
scalar IntersectionExampleScenario.node[30].veinsmobility 	minSpeed 	1.2936475276947
scalar IntersectionExampleScenario.node[30].veinsmobility 	maxSpeed 	15.64999961853
scalar IntersectionExampleScenario.node[30].veinsmobility 	totalDistance 	550.84966604114
scalar IntersectionExampleScenario.node[30].veinsmobility 	totalCO2Emission 	139.14079222977
scalar IntersectionExampleScenario.node[34].appl 	VehicleRemoved 	0
scalar IntersectionExampleScenario.node[34].appl 	ArrivedAtDest 	1
scalar IntersectionExampleScenario.node[34].appl 	IntersectionEnterTime 	141.25
scalar IntersectionExampleScenario.node[34].appl 	IntersectionExitTime 	164.61897531105
scalar IntersectionExampleScenario.node[34].appl 	NumberOfCollisions 	0
scalar IntersectionExampleScenario.node[34].nic.phy80211p 	busyTime 	0
scalar IntersectionExampleScenario.node[34].nic.mac1609_4 	ReceivedUnicastPackets 	0
scalar IntersectionExampleScenario.node[34].nic.mac1609_4 	ReceivedBroadcasts 	0
scalar IntersectionExampleScenario.node[34].nic.mac1609_4 	SentPackets 	0
scalar IntersectionExampleScenario.node[34].nic.mac1609_4 	SNIRLostPackets 	0
scalar IntersectionExampleScenario.node[34].nic.mac1609_4 	RXTXLostPackets 	0
scalar IntersectionExampleScenario.node[34].nic.mac1609_4 	TotalLostPackets 	0
scalar IntersectionExampleScenario.node[34].nic.mac1609_4 	DroppedPacketsInMac 	0
scalar IntersectionExampleScenario.node[34].nic.mac1609_4 	TooLittleTime 	0
scalar IntersectionExampleScenario.node[34].nic.mac1609_4 	TimesIntoBackoff 	0
scalar IntersectionExampleScenario.node[34].nic.mac1609_4 	SlotsBackoff 	0
scalar IntersectionExampleScenario.node[34].nic.mac1609_4 	NumInternalContention 	0
scalar IntersectionExampleScenario.node[34].nic.mac1609_4 	totalBusyTime 	0
scalar IntersectionExampleScenario.node[34].veinsmobility 	startTime 	141.25
scalar IntersectionExampleScenario.node[34].veinsmobility 	totalTime 	40
scalar IntersectionExampleScenario.node[34].veinsmobility 	stopTime 	181.5
scalar IntersectionExampleScenario.node[34].veinsmobility 	minSpeed 	5.6500000953674
scalar IntersectionExampleScenario.node[34].veinsmobility 	maxSpeed 	15.875
scalar IntersectionExampleScenario.node[34].veinsmobility 	totalDistance 	545.62878780216
scalar IntersectionExampleScenario.node[34].veinsmobility 	totalCO2Emission 	127.12384671915
scalar IntersectionExampleScenario.node[36].appl 	VehicleRemoved 	0
scalar IntersectionExampleScenario.node[36].appl 	ArrivedAtDest 	1
scalar IntersectionExampleScenario.node[36].appl 	IntersectionEnterTime 	141.25
scalar IntersectionExampleScenario.node[36].appl 	IntersectionExitTime 	167.76972147438
scalar IntersectionExampleScenario.node[36].appl 	NumberOfCollisions 	0
scalar IntersectionExampleScenario.node[36].nic.phy80211p 	busyTime 	0
scalar IntersectionExampleScenario.node[36].nic.mac1609_4 	ReceivedUnicastPackets 	0
scalar IntersectionExampleScenario.node[36].nic.mac1609_4 	ReceivedBroadcasts 	0
scalar IntersectionExampleScenario.node[36].nic.mac1609_4 	SentPackets 	0
scalar IntersectionExampleScenario.node[36].nic.mac1609_4 	SNIRLostPackets 	0
scalar IntersectionExampleScenario.node[36].nic.mac1609_4 	RXTXLostPackets 	0
scalar IntersectionExampleScenario.node[36].nic.mac1609_4 	TotalLostPackets 	0
scalar IntersectionExampleScenario.node[36].nic.mac1609_4 	DroppedPacketsInMac 	0
scalar IntersectionExampleScenario.node[36].nic.mac1609_4 	TooLittleTime 	0
scalar IntersectionExampleScenario.node[36].nic.mac1609_4 	TimesIntoBackoff 	0
scalar IntersectionExampleScenario.node[36].nic.mac1609_4 	SlotsBackoff 	0
scalar IntersectionExampleScenario.node[36].nic.mac1609_4 	NumInternalContention 	0
scalar IntersectionExampleScenario.node[36].nic.mac1609_4 	totalBusyTime 	0
scalar IntersectionExampleScenario.node[36].veinsmobility 	startTime 	141.25
scalar IntersectionExampleScenario.node[36].veinsmobility 	totalTime 	43
scalar IntersectionExampleScenario.node[36].veinsmobility 	stopTime 	184.5
scalar IntersectionExampleScenario.node[36].veinsmobility 	minSpeed 	0
scalar IntersectionExampleScenario.node[36].veinsmobility 	maxSpeed 	15.375
scalar IntersectionExampleScenario.node[36].veinsmobility 	totalDistance 	549.76284151506
scalar IntersectionExampleScenario.node[36].veinsmobility 	totalCO2Emission 	132.55879593276
scalar IntersectionExampleScenario.node[40].appl 	VehicleRemoved 	0
scalar IntersectionExampleScenario.node[40].appl 	ArrivedAtDest 	1
scalar IntersectionExampleScenario.node[40].appl 	IntersectionEnterTime 	153.5
scalar IntersectionExampleScenario.node[40].appl 	IntersectionExitTime 	177.52552285363
scalar IntersectionExampleScenario.node[40].appl 	NumberOfCollisions 	0
scalar IntersectionExampleScenario.node[40].nic.phy80211p 	busyTime 	0
scalar IntersectionExampleScenario.node[40].nic.mac1609_4 	ReceivedUnicastPackets 	0
scalar IntersectionExampleScenario.node[40].nic.mac1609_4 	ReceivedBroadcasts 	0
scalar IntersectionExampleScenario.node[40].nic.mac1609_4 	SentPackets 	0
scalar IntersectionExampleScenario.node[40].nic.mac1609_4 	SNIRLostPackets 	0
scalar IntersectionExampleScenario.node[40].nic.mac1609_4 	RXTXLostPackets 	0
scalar IntersectionExampleScenario.node[40].nic.mac1609_4 	TotalLostPackets 	0
scalar IntersectionExampleScenario.node[40].nic.mac1609_4 	DroppedPacketsInMac 	0
scalar IntersectionExampleScenario.node[40].nic.mac1609_4 	TooLittleTime 	0
scalar IntersectionExampleScenario.node[40].nic.mac1609_4 	TimesIntoBackoff 	0
scalar IntersectionExampleScenario.node[40].nic.mac1609_4 	SlotsBackoff 	0
scalar IntersectionExampleScenario.node[40].nic.mac1609_4 	NumInternalContention 	0
scalar IntersectionExampleScenario.node[40].nic.mac1609_4 	totalBusyTime 	0
scalar IntersectionExampleScenario.node[40].veinsmobility 	startTime 	153.5
scalar IntersectionExampleScenario.node[40].veinsmobility 	totalTime 	41.25
scalar IntersectionExampleScenario.node[40].veinsmobility 	stopTime 	195
scalar IntersectionExampleScenario.node[40].veinsmobility 	minSpeed 	5.6500000953674
scalar IntersectionExampleScenario.node[40].veinsmobility 	maxSpeed 	15.25
scalar IntersectionExampleScenario.node[40].veinsmobility 	totalDistance 	545.93224638835
scalar IntersectionExampleScenario.node[40].veinsmobility 	totalCO2Emission 	123.59191833005
scalar IntersectionExampleScenario.node[33].appl 	VehicleRemoved 	0
scalar IntersectionExampleScenario.node[33].appl 	ArrivedAtDest 	1
scalar IntersectionExampleScenario.node[33].appl 	IntersectionEnterTime 	137.25
scalar IntersectionExampleScenario.node[33].appl 	IntersectionExitTime 	179.2530739012
scalar IntersectionExampleScenario.node[33].appl 	NumberOfCollisions 	0
scalar IntersectionExampleScenario.node[33].nic.phy80211p 	busyTime 	0
scalar IntersectionExampleScenario.node[33].nic.mac1609_4 	ReceivedUnicastPackets 	0
scalar IntersectionExampleScenario.node[33].nic.mac1609_4 	ReceivedBroadcasts 	0
scalar IntersectionExampleScenario.node[33].nic.mac1609_4 	SentPackets 	0
scalar IntersectionExampleScenario.node[33].nic.mac1609_4 	SNIRLostPackets 	0
scalar IntersectionExampleScenario.node[33].nic.mac1609_4 	RXTXLostPackets 	0
scalar IntersectionExampleScenario.node[33].nic.mac1609_4 	TotalLostPackets 	0
scalar IntersectionExampleScenario.node[33].nic.mac1609_4 	DroppedPacketsInMac 	0
scalar IntersectionExampleScenario.node[33].nic.mac1609_4 	TooLittleTime 	0
scalar IntersectionExampleScenario.node[33].nic.mac1609_4 	TimesIntoBackoff 	0
scalar IntersectionExampleScenario.node[33].nic.mac1609_4 	SlotsBackoff 	0
scalar IntersectionExampleScenario.node[33].nic.mac1609_4 	NumInternalContention 	0
scalar IntersectionExampleScenario.node[33].nic.mac1609_4 	totalBusyTime 	0
scalar IntersectionExampleScenario.node[33].veinsmobility 	startTime 	137.25
scalar IntersectionExampleScenario.node[33].veinsmobility 	totalTime 	58
scalar IntersectionExampleScenario.node[33].veinsmobility 	stopTime 	195.5
scalar IntersectionExampleScenario.node[33].veinsmobility 	minSpeed 	0
scalar IntersectionExampleScenario.node[33].veinsmobility 	maxSpeed 	15.64999961853
scalar IntersectionExampleScenario.node[33].veinsmobility 	totalDistance 	551.9105682373
scalar IntersectionExampleScenario.node[33].veinsmobility 	totalCO2Emission 	149.88717811053
scalar IntersectionExampleScenario.node[35].appl 	VehicleRemoved 	0
scalar IntersectionExampleScenario.node[35].appl 	ArrivedAtDest 	1
scalar IntersectionExampleScenario.node[35].appl 	IntersectionEnterTime 	141.25
scalar IntersectionExampleScenario.node[35].appl 	IntersectionExitTime 	179.32710639198
scalar IntersectionExampleScenario.node[35].appl 	NumberOfCollisions 	0
scalar IntersectionExampleScenario.node[35].nic.phy80211p 	busyTime 	0
scalar IntersectionExampleScenario.node[35].nic.mac1609_4 	ReceivedUnicastPackets 	0
scalar IntersectionExampleScenario.node[35].nic.mac1609_4 	ReceivedBroadcasts 	0
scalar IntersectionExampleScenario.node[35].nic.mac1609_4 	SentPackets 	0
scalar IntersectionExampleScenario.node[35].nic.mac1609_4 	SNIRLostPackets 	0
scalar IntersectionExampleScenario.node[35].nic.mac1609_4 	RXTXLostPackets 	0
scalar IntersectionExampleScenario.node[35].nic.mac1609_4 	TotalLostPackets 	0
scalar IntersectionExampleScenario.node[35].nic.mac1609_4 	DroppedPacketsInMac 	0
scalar IntersectionExampleScenario.node[35].nic.mac1609_4 	TooLittleTime 	0
scalar IntersectionExampleScenario.node[35].nic.mac1609_4 	TimesIntoBackoff 	0
scalar IntersectionExampleScenario.node[35].nic.mac1609_4 	SlotsBackoff 	0
scalar IntersectionExampleScenario.node[35].nic.mac1609_4 	NumInternalContention 	0
scalar IntersectionExampleScenario.node[35].nic.mac1609_4 	totalBusyTime 	0
scalar IntersectionExampleScenario.node[35].veinsmobility 	startTime 	141.25
scalar IntersectionExampleScenario.node[35].veinsmobility 	totalTime 	55
scalar IntersectionExampleScenario.node[35].veinsmobility 	stopTime 	196.5
scalar IntersectionExampleScenario.node[35].veinsmobility 	minSpeed 	0
scalar IntersectionExampleScenario.node[35].veinsmobility 	maxSpeed 	14.75
scalar IntersectionExampleScenario.node[35].veinsmobility 	totalDistance 	550.34266771426
scalar IntersectionExampleScenario.node[35].veinsmobility 	totalCO2Emission 	139.92980610606
scalar IntersectionExampleScenario.node[38].appl 	VehicleRemoved 	0
scalar IntersectionExampleScenario.node[38].appl 	ArrivedAtDest 	1
scalar IntersectionExampleScenario.node[38].appl 	IntersectionEnterTime 	143.5
scalar IntersectionExampleScenario.node[38].appl 	IntersectionExitTime 	181.30043881747
scalar IntersectionExampleScenario.node[38].appl 	NumberOfCollisions 	0
scalar IntersectionExampleScenario.node[38].nic.phy80211p 	busyTime 	0
scalar IntersectionExampleScenario.node[38].nic.mac1609_4 	ReceivedUnicastPackets 	0
scalar IntersectionExampleScenario.node[38].nic.mac1609_4 	ReceivedBroadcasts 	0
scalar IntersectionExampleScenario.node[38].nic.mac1609_4 	SentPackets 	0
scalar IntersectionExampleScenario.node[38].nic.mac1609_4 	SNIRLostPackets 	0
scalar IntersectionExampleScenario.node[38].nic.mac1609_4 	RXTXLostPackets 	0
scalar IntersectionExampleScenario.node[38].nic.mac1609_4 	TotalLostPackets 	0
scalar IntersectionExampleScenario.node[38].nic.mac1609_4 	DroppedPacketsInMac 	0
scalar IntersectionExampleScenario.node[38].nic.mac1609_4 	TooLittleTime 	0
scalar IntersectionExampleScenario.node[38].nic.mac1609_4 	TimesIntoBackoff 	0
scalar IntersectionExampleScenario.node[38].nic.mac1609_4 	SlotsBackoff 	0
scalar IntersectionExampleScenario.node[38].nic.mac1609_4 	NumInternalContention 	0
scalar IntersectionExampleScenario.node[38].nic.mac1609_4 	totalBusyTime 	0
scalar IntersectionExampleScenario.node[38].veinsmobility 	startTime 	143.5
scalar IntersectionExampleScenario.node[38].veinsmobility 	totalTime 	54
scalar IntersectionExampleScenario.node[38].veinsmobility 	stopTime 	197.75
scalar IntersectionExampleScenario.node[38].veinsmobility 	minSpeed 	0
scalar IntersectionExampleScenario.node[38].veinsmobility 	maxSpeed 	15.947562217712
scalar IntersectionExampleScenario.node[38].veinsmobility 	totalDistance 	568.59251889303
scalar IntersectionExampleScenario.node[38].veinsmobility 	totalCO2Emission 	156.28615704284
scalar IntersectionExampleScenario.node[39].appl 	VehicleRemoved 	0
scalar IntersectionExampleScenario.node[39].appl 	ArrivedAtDest 	1
scalar IntersectionExampleScenario.node[39].appl 	IntersectionEnterTime 	150.5
scalar IntersectionExampleScenario.node[39].appl 	IntersectionExitTime 	183.5730966721
scalar IntersectionExampleScenario.node[39].appl 	NumberOfCollisions 	0
scalar IntersectionExampleScenario.node[39].nic.phy80211p 	busyTime 	0
scalar IntersectionExampleScenario.node[39].nic.mac1609_4 	ReceivedUnicastPackets 	0
scalar IntersectionExampleScenario.node[39].nic.mac1609_4 	ReceivedBroadcasts 	0
scalar IntersectionExampleScenario.node[39].nic.mac1609_4 	SentPackets 	0
scalar IntersectionExampleScenario.node[39].nic.mac1609_4 	SNIRLostPackets 	0
scalar IntersectionExampleScenario.node[39].nic.mac1609_4 	RXTXLostPackets 	0
scalar IntersectionExampleScenario.node[39].nic.mac1609_4 	TotalLostPackets 	0
scalar IntersectionExampleScenario.node[39].nic.mac1609_4 	DroppedPacketsInMac 	0
scalar IntersectionExampleScenario.node[39].nic.mac1609_4 	TooLittleTime 	0
scalar IntersectionExampleScenario.node[39].nic.mac1609_4 	TimesIntoBackoff 	0
scalar IntersectionExampleScenario.node[39].nic.mac1609_4 	SlotsBackoff 	0
[...]
scalar IntersectionExampleScenario.node[471].veinsmobility 	totalDistance 	370.6816917786
scalar IntersectionExampleScenario.node[471].veinsmobility 	totalCO2Emission 	110.62091599759
scalar IntersectionExampleScenario.node[472].appl 	VehicleRemoved 	0
scalar IntersectionExampleScenario.node[472].appl 	ArrivedAtDest 	0
scalar IntersectionExampleScenario.node[472].appl 	IntersectionEnterTime 	1766.25
scalar IntersectionExampleScenario.node[472].appl 	IntersectionExitTime 	1791.8592664691
scalar IntersectionExampleScenario.node[472].appl 	NumberOfCollisions 	0
scalar IntersectionExampleScenario.node[472].nic.phy80211p 	busyTime 	0
scalar IntersectionExampleScenario.node[472].nic.mac1609_4 	ReceivedUnicastPackets 	0
scalar IntersectionExampleScenario.node[472].nic.mac1609_4 	ReceivedBroadcasts 	0
scalar IntersectionExampleScenario.node[472].nic.mac1609_4 	SentPackets 	0
scalar IntersectionExampleScenario.node[472].nic.mac1609_4 	SNIRLostPackets 	0
scalar IntersectionExampleScenario.node[472].nic.mac1609_4 	RXTXLostPackets 	0
scalar IntersectionExampleScenario.node[472].nic.mac1609_4 	TotalLostPackets 	0
scalar IntersectionExampleScenario.node[472].nic.mac1609_4 	DroppedPacketsInMac 	0
scalar IntersectionExampleScenario.node[472].nic.mac1609_4 	TooLittleTime 	0
scalar IntersectionExampleScenario.node[472].nic.mac1609_4 	TimesIntoBackoff 	0
scalar IntersectionExampleScenario.node[472].nic.mac1609_4 	SlotsBackoff 	0
scalar IntersectionExampleScenario.node[472].nic.mac1609_4 	NumInternalContention 	0
scalar IntersectionExampleScenario.node[472].nic.mac1609_4 	totalBusyTime 	0
scalar IntersectionExampleScenario.node[472].veinsmobility 	startTime 	1766.25
scalar IntersectionExampleScenario.node[472].veinsmobility 	totalTime 	33.75
scalar IntersectionExampleScenario.node[472].veinsmobility 	stopTime 	1800
scalar IntersectionExampleScenario.node[472].veinsmobility 	minSpeed 	5.6500000953674
scalar IntersectionExampleScenario.node[472].veinsmobility 	maxSpeed 	16.015171051025
scalar IntersectionExampleScenario.node[472].veinsmobility 	totalDistance 	418.58233629846
scalar IntersectionExampleScenario.node[472].veinsmobility 	totalCO2Emission 	122.63536263112
scalar IntersectionExampleScenario.node[473].appl 	VehicleRemoved 	0
scalar IntersectionExampleScenario.node[473].appl 	ArrivedAtDest 	0
scalar IntersectionExampleScenario.node[473].appl 	IntersectionEnterTime 	1766.75
scalar IntersectionExampleScenario.node[473].appl 	IntersectionExitTime 	-1
scalar IntersectionExampleScenario.node[473].appl 	NumberOfCollisions 	0
scalar IntersectionExampleScenario.node[473].nic.phy80211p 	busyTime 	0
scalar IntersectionExampleScenario.node[473].nic.mac1609_4 	ReceivedUnicastPackets 	0
scalar IntersectionExampleScenario.node[473].nic.mac1609_4 	ReceivedBroadcasts 	0
scalar IntersectionExampleScenario.node[473].nic.mac1609_4 	SentPackets 	0
scalar IntersectionExampleScenario.node[473].nic.mac1609_4 	SNIRLostPackets 	0
scalar IntersectionExampleScenario.node[473].nic.mac1609_4 	RXTXLostPackets 	0
scalar IntersectionExampleScenario.node[473].nic.mac1609_4 	TotalLostPackets 	0
scalar IntersectionExampleScenario.node[473].nic.mac1609_4 	DroppedPacketsInMac 	0
scalar IntersectionExampleScenario.node[473].nic.mac1609_4 	TooLittleTime 	0
scalar IntersectionExampleScenario.node[473].nic.mac1609_4 	TimesIntoBackoff 	0
scalar IntersectionExampleScenario.node[473].nic.mac1609_4 	SlotsBackoff 	0
scalar IntersectionExampleScenario.node[473].nic.mac1609_4 	NumInternalContention 	0
scalar IntersectionExampleScenario.node[473].nic.mac1609_4 	totalBusyTime 	0
scalar IntersectionExampleScenario.node[473].veinsmobility 	startTime 	1766.75
scalar IntersectionExampleScenario.node[473].veinsmobility 	totalTime 	33.25
scalar IntersectionExampleScenario.node[473].veinsmobility 	stopTime 	1800
scalar IntersectionExampleScenario.node[473].veinsmobility 	minSpeed 	0
scalar IntersectionExampleScenario.node[473].veinsmobility 	maxSpeed 	15.02499961853
scalar IntersectionExampleScenario.node[473].veinsmobility 	totalDistance 	293.62500762939
scalar IntersectionExampleScenario.node[473].veinsmobility 	totalCO2Emission 	78.780920546609
scalar IntersectionExampleScenario.node[474].appl 	VehicleRemoved 	0
scalar IntersectionExampleScenario.node[474].appl 	ArrivedAtDest 	0
scalar IntersectionExampleScenario.node[474].appl 	IntersectionEnterTime 	1768
scalar IntersectionExampleScenario.node[474].appl 	IntersectionExitTime 	-1
scalar IntersectionExampleScenario.node[474].appl 	NumberOfCollisions 	0
scalar IntersectionExampleScenario.node[474].nic.phy80211p 	busyTime 	0
scalar IntersectionExampleScenario.node[474].nic.mac1609_4 	ReceivedUnicastPackets 	0
scalar IntersectionExampleScenario.node[474].nic.mac1609_4 	ReceivedBroadcasts 	0
scalar IntersectionExampleScenario.node[474].nic.mac1609_4 	SentPackets 	0
scalar IntersectionExampleScenario.node[474].nic.mac1609_4 	SNIRLostPackets 	0
scalar IntersectionExampleScenario.node[474].nic.mac1609_4 	RXTXLostPackets 	0
scalar IntersectionExampleScenario.node[474].nic.mac1609_4 	TotalLostPackets 	0
scalar IntersectionExampleScenario.node[474].nic.mac1609_4 	DroppedPacketsInMac 	0
scalar IntersectionExampleScenario.node[474].nic.mac1609_4 	TooLittleTime 	0
scalar IntersectionExampleScenario.node[474].nic.mac1609_4 	TimesIntoBackoff 	0
scalar IntersectionExampleScenario.node[474].nic.mac1609_4 	SlotsBackoff 	0
scalar IntersectionExampleScenario.node[474].nic.mac1609_4 	NumInternalContention 	0
scalar IntersectionExampleScenario.node[474].nic.mac1609_4 	totalBusyTime 	0
scalar IntersectionExampleScenario.node[474].veinsmobility 	startTime 	1768
scalar IntersectionExampleScenario.node[474].veinsmobility 	totalTime 	32
scalar IntersectionExampleScenario.node[474].veinsmobility 	stopTime 	1800
scalar IntersectionExampleScenario.node[474].veinsmobility 	minSpeed 	0
scalar IntersectionExampleScenario.node[474].veinsmobility 	maxSpeed 	15.752806663513
scalar IntersectionExampleScenario.node[474].veinsmobility 	totalDistance 	308.25672149658
scalar IntersectionExampleScenario.node[474].veinsmobility 	totalCO2Emission 	81.329243966679
scalar IntersectionExampleScenario.node[475].appl 	VehicleRemoved 	0
scalar IntersectionExampleScenario.node[475].appl 	ArrivedAtDest 	0
scalar IntersectionExampleScenario.node[475].appl 	IntersectionEnterTime 	1774
scalar IntersectionExampleScenario.node[475].appl 	IntersectionExitTime 	-1
scalar IntersectionExampleScenario.node[475].appl 	NumberOfCollisions 	0
scalar IntersectionExampleScenario.node[475].nic.phy80211p 	busyTime 	0
scalar IntersectionExampleScenario.node[475].nic.mac1609_4 	ReceivedUnicastPackets 	0
scalar IntersectionExampleScenario.node[475].nic.mac1609_4 	ReceivedBroadcasts 	0
scalar IntersectionExampleScenario.node[475].nic.mac1609_4 	SentPackets 	0
scalar IntersectionExampleScenario.node[475].nic.mac1609_4 	SNIRLostPackets 	0
scalar IntersectionExampleScenario.node[475].nic.mac1609_4 	RXTXLostPackets 	0
scalar IntersectionExampleScenario.node[475].nic.mac1609_4 	TotalLostPackets 	0
scalar IntersectionExampleScenario.node[475].nic.mac1609_4 	DroppedPacketsInMac 	0
scalar IntersectionExampleScenario.node[475].nic.mac1609_4 	TooLittleTime 	0
scalar IntersectionExampleScenario.node[475].nic.mac1609_4 	TimesIntoBackoff 	0
scalar IntersectionExampleScenario.node[475].nic.mac1609_4 	SlotsBackoff 	0
scalar IntersectionExampleScenario.node[475].nic.mac1609_4 	NumInternalContention 	0
scalar IntersectionExampleScenario.node[475].nic.mac1609_4 	totalBusyTime 	0
scalar IntersectionExampleScenario.node[475].veinsmobility 	startTime 	1774
scalar IntersectionExampleScenario.node[475].veinsmobility 	totalTime 	26
scalar IntersectionExampleScenario.node[475].veinsmobility 	stopTime 	1800
scalar IntersectionExampleScenario.node[475].veinsmobility 	minSpeed 	2.4613289833069
scalar IntersectionExampleScenario.node[475].veinsmobility 	maxSpeed 	15.02499961853
scalar IntersectionExampleScenario.node[475].veinsmobility 	totalDistance 	274.48468780518
scalar IntersectionExampleScenario.node[475].veinsmobility 	totalCO2Emission 	66.620562500445
scalar IntersectionExampleScenario.node[476].appl 	VehicleRemoved 	0
scalar IntersectionExampleScenario.node[476].appl 	ArrivedAtDest 	0
scalar IntersectionExampleScenario.node[476].appl 	IntersectionEnterTime 	1775.5
scalar IntersectionExampleScenario.node[476].appl 	IntersectionExitTime 	1799.8678722998
scalar IntersectionExampleScenario.node[476].appl 	NumberOfCollisions 	0
scalar IntersectionExampleScenario.node[476].nic.phy80211p 	busyTime 	0
scalar IntersectionExampleScenario.node[476].nic.mac1609_4 	ReceivedUnicastPackets 	0
scalar IntersectionExampleScenario.node[476].nic.mac1609_4 	ReceivedBroadcasts 	0
scalar IntersectionExampleScenario.node[476].nic.mac1609_4 	SentPackets 	0
scalar IntersectionExampleScenario.node[476].nic.mac1609_4 	SNIRLostPackets 	0
scalar IntersectionExampleScenario.node[476].nic.mac1609_4 	RXTXLostPackets 	0
scalar IntersectionExampleScenario.node[476].nic.mac1609_4 	TotalLostPackets 	0
scalar IntersectionExampleScenario.node[476].nic.mac1609_4 	DroppedPacketsInMac 	0
scalar IntersectionExampleScenario.node[476].nic.mac1609_4 	TooLittleTime 	0
scalar IntersectionExampleScenario.node[476].nic.mac1609_4 	TimesIntoBackoff 	0
scalar IntersectionExampleScenario.node[476].nic.mac1609_4 	SlotsBackoff 	0
scalar IntersectionExampleScenario.node[476].nic.mac1609_4 	NumInternalContention 	0
scalar IntersectionExampleScenario.node[476].nic.mac1609_4 	totalBusyTime 	0
scalar IntersectionExampleScenario.node[476].veinsmobility 	startTime 	1775.5
scalar IntersectionExampleScenario.node[476].veinsmobility 	totalTime 	24.5
scalar IntersectionExampleScenario.node[476].veinsmobility 	stopTime 	1800
scalar IntersectionExampleScenario.node[476].veinsmobility 	minSpeed 	5.6500000953674
scalar IntersectionExampleScenario.node[476].veinsmobility 	maxSpeed 	15.726733207703
scalar IntersectionExampleScenario.node[476].veinsmobility 	totalDistance 	306.7280058998
scalar IntersectionExampleScenario.node[476].veinsmobility 	totalCO2Emission 	74.025548471698
scalar IntersectionExampleScenario.node[477].appl 	VehicleRemoved 	0
scalar IntersectionExampleScenario.node[477].appl 	ArrivedAtDest 	0
scalar IntersectionExampleScenario.node[477].appl 	IntersectionEnterTime 	1776.75
scalar IntersectionExampleScenario.node[477].appl 	IntersectionExitTime 	-1
scalar IntersectionExampleScenario.node[477].appl 	NumberOfCollisions 	0
scalar IntersectionExampleScenario.node[477].nic.phy80211p 	busyTime 	0
scalar IntersectionExampleScenario.node[477].nic.mac1609_4 	ReceivedUnicastPackets 	0
scalar IntersectionExampleScenario.node[477].nic.mac1609_4 	ReceivedBroadcasts 	0
scalar IntersectionExampleScenario.node[477].nic.mac1609_4 	SentPackets 	0
scalar IntersectionExampleScenario.node[477].nic.mac1609_4 	SNIRLostPackets 	0
scalar IntersectionExampleScenario.node[477].nic.mac1609_4 	RXTXLostPackets 	0
scalar IntersectionExampleScenario.node[477].nic.mac1609_4 	TotalLostPackets 	0
scalar IntersectionExampleScenario.node[477].nic.mac1609_4 	DroppedPacketsInMac 	0
scalar IntersectionExampleScenario.node[477].nic.mac1609_4 	TooLittleTime 	0
scalar IntersectionExampleScenario.node[477].nic.mac1609_4 	TimesIntoBackoff 	0
scalar IntersectionExampleScenario.node[477].nic.mac1609_4 	SlotsBackoff 	0
scalar IntersectionExampleScenario.node[477].nic.mac1609_4 	NumInternalContention 	0
scalar IntersectionExampleScenario.node[477].nic.mac1609_4 	totalBusyTime 	0
scalar IntersectionExampleScenario.node[477].veinsmobility 	startTime 	1776.75
scalar IntersectionExampleScenario.node[477].veinsmobility 	totalTime 	23.25
scalar IntersectionExampleScenario.node[477].veinsmobility 	stopTime 	1800
scalar IntersectionExampleScenario.node[477].veinsmobility 	minSpeed 	4.3330783843994
scalar IntersectionExampleScenario.node[477].veinsmobility 	maxSpeed 	14.39999961853
scalar IntersectionExampleScenario.node[477].veinsmobility 	totalDistance 	261.31271362305
scalar IntersectionExampleScenario.node[477].veinsmobility 	totalCO2Emission 	62.248343972334
scalar IntersectionExampleScenario.node[478].appl 	VehicleRemoved 	0
scalar IntersectionExampleScenario.node[478].appl 	ArrivedAtDest 	0
scalar IntersectionExampleScenario.node[478].appl 	IntersectionEnterTime 	1792
scalar IntersectionExampleScenario.node[478].appl 	IntersectionExitTime 	-1
scalar IntersectionExampleScenario.node[478].appl 	NumberOfCollisions 	0
scalar IntersectionExampleScenario.node[478].nic.phy80211p 	busyTime 	0
scalar IntersectionExampleScenario.node[478].nic.mac1609_4 	ReceivedUnicastPackets 	0
scalar IntersectionExampleScenario.node[478].nic.mac1609_4 	ReceivedBroadcasts 	0
scalar IntersectionExampleScenario.node[478].nic.mac1609_4 	SentPackets 	0
scalar IntersectionExampleScenario.node[478].nic.mac1609_4 	SNIRLostPackets 	0
scalar IntersectionExampleScenario.node[478].nic.mac1609_4 	RXTXLostPackets 	0
scalar IntersectionExampleScenario.node[478].nic.mac1609_4 	TotalLostPackets 	0
scalar IntersectionExampleScenario.node[478].nic.mac1609_4 	DroppedPacketsInMac 	0
scalar IntersectionExampleScenario.node[478].nic.mac1609_4 	TooLittleTime 	0
scalar IntersectionExampleScenario.node[478].nic.mac1609_4 	TimesIntoBackoff 	0
scalar IntersectionExampleScenario.node[478].nic.mac1609_4 	SlotsBackoff 	0
scalar IntersectionExampleScenario.node[478].nic.mac1609_4 	NumInternalContention 	0
scalar IntersectionExampleScenario.node[478].nic.mac1609_4 	totalBusyTime 	0
scalar IntersectionExampleScenario.node[478].veinsmobility 	startTime 	1792
scalar IntersectionExampleScenario.node[478].veinsmobility 	totalTime 	8
scalar IntersectionExampleScenario.node[478].veinsmobility 	stopTime 	1800
scalar IntersectionExampleScenario.node[478].veinsmobility 	minSpeed 	5.6500000953674
scalar IntersectionExampleScenario.node[478].veinsmobility 	maxSpeed 	16.27499961853
scalar IntersectionExampleScenario.node[478].veinsmobility 	totalDistance 	103.99356842041
scalar IntersectionExampleScenario.node[478].veinsmobility 	totalCO2Emission 	43.146541975249
scalar IntersectionExampleScenario.node[479].appl 	VehicleRemoved 	0
scalar IntersectionExampleScenario.node[479].appl 	ArrivedAtDest 	0
scalar IntersectionExampleScenario.node[479].appl 	IntersectionEnterTime 	1793
scalar IntersectionExampleScenario.node[479].appl 	IntersectionExitTime 	-1
scalar IntersectionExampleScenario.node[479].appl 	NumberOfCollisions 	0
scalar IntersectionExampleScenario.node[479].nic.phy80211p 	busyTime 	0
scalar IntersectionExampleScenario.node[479].nic.mac1609_4 	ReceivedUnicastPackets 	0
scalar IntersectionExampleScenario.node[479].nic.mac1609_4 	ReceivedBroadcasts 	0
scalar IntersectionExampleScenario.node[479].nic.mac1609_4 	SentPackets 	0
scalar IntersectionExampleScenario.node[479].nic.mac1609_4 	SNIRLostPackets 	0
scalar IntersectionExampleScenario.node[479].nic.mac1609_4 	RXTXLostPackets 	0
scalar IntersectionExampleScenario.node[479].nic.mac1609_4 	TotalLostPackets 	0
scalar IntersectionExampleScenario.node[479].nic.mac1609_4 	DroppedPacketsInMac 	0
scalar IntersectionExampleScenario.node[479].nic.mac1609_4 	TooLittleTime 	0
scalar IntersectionExampleScenario.node[479].nic.mac1609_4 	TimesIntoBackoff 	0
scalar IntersectionExampleScenario.node[479].nic.mac1609_4 	SlotsBackoff 	0
scalar IntersectionExampleScenario.node[479].nic.mac1609_4 	NumInternalContention 	0
scalar IntersectionExampleScenario.node[479].nic.mac1609_4 	totalBusyTime 	0
scalar IntersectionExampleScenario.node[479].veinsmobility 	startTime 	1793
scalar IntersectionExampleScenario.node[479].veinsmobility 	totalTime 	7
scalar IntersectionExampleScenario.node[479].veinsmobility 	stopTime 	1800
scalar IntersectionExampleScenario.node[479].veinsmobility 	minSpeed 	5.6500000953674
scalar IntersectionExampleScenario.node[479].veinsmobility 	maxSpeed 	15.664733886719
scalar IntersectionExampleScenario.node[479].veinsmobility 	totalDistance 	87.003784179688
scalar IntersectionExampleScenario.node[479].veinsmobility 	totalCO2Emission 	39.706456495833
scalar IntersectionExampleScenario.node[480].appl 	VehicleRemoved 	0
scalar IntersectionExampleScenario.node[480].appl 	ArrivedAtDest 	0
scalar IntersectionExampleScenario.node[480].appl 	IntersectionEnterTime 	1796
scalar IntersectionExampleScenario.node[480].appl 	IntersectionExitTime 	-1
scalar IntersectionExampleScenario.node[480].appl 	NumberOfCollisions 	0
scalar IntersectionExampleScenario.node[480].nic.phy80211p 	busyTime 	0
scalar IntersectionExampleScenario.node[480].nic.mac1609_4 	ReceivedUnicastPackets 	0
scalar IntersectionExampleScenario.node[480].nic.mac1609_4 	ReceivedBroadcasts 	0
scalar IntersectionExampleScenario.node[480].nic.mac1609_4 	SentPackets 	0
scalar IntersectionExampleScenario.node[480].nic.mac1609_4 	SNIRLostPackets 	0
scalar IntersectionExampleScenario.node[480].nic.mac1609_4 	RXTXLostPackets 	0
scalar IntersectionExampleScenario.node[480].nic.mac1609_4 	TotalLostPackets 	0
scalar IntersectionExampleScenario.node[480].nic.mac1609_4 	DroppedPacketsInMac 	0
scalar IntersectionExampleScenario.node[480].nic.mac1609_4 	TooLittleTime 	0
scalar IntersectionExampleScenario.node[480].nic.mac1609_4 	TimesIntoBackoff 	0
scalar IntersectionExampleScenario.node[480].nic.mac1609_4 	SlotsBackoff 	0
scalar IntersectionExampleScenario.node[480].nic.mac1609_4 	NumInternalContention 	0
scalar IntersectionExampleScenario.node[480].nic.mac1609_4 	totalBusyTime 	0
scalar IntersectionExampleScenario.node[480].veinsmobility 	startTime 	1796
scalar IntersectionExampleScenario.node[480].veinsmobility 	totalTime 	4
scalar IntersectionExampleScenario.node[480].veinsmobility 	stopTime 	1800
scalar IntersectionExampleScenario.node[480].veinsmobility 	minSpeed 	5.6500000953674
scalar IntersectionExampleScenario.node[480].veinsmobility 	maxSpeed 	15.02499961853
scalar IntersectionExampleScenario.node[480].veinsmobility 	totalDistance 	40.099975585938
scalar IntersectionExampleScenario.node[480].veinsmobility 	totalCO2Emission 	30.650591168342
scalar IntersectionExampleScenario.node[481].appl 	VehicleRemoved 	0
scalar IntersectionExampleScenario.node[481].appl 	ArrivedAtDest 	0
scalar IntersectionExampleScenario.node[481].appl 	IntersectionEnterTime 	1799.25
scalar IntersectionExampleScenario.node[481].appl 	IntersectionExitTime 	-1
scalar IntersectionExampleScenario.node[481].appl 	NumberOfCollisions 	0
scalar IntersectionExampleScenario.node[481].nic.phy80211p 	busyTime 	0
scalar IntersectionExampleScenario.node[481].nic.mac1609_4 	ReceivedUnicastPackets 	0
scalar IntersectionExampleScenario.node[481].nic.mac1609_4 	ReceivedBroadcasts 	0
scalar IntersectionExampleScenario.node[481].nic.mac1609_4 	SentPackets 	0
scalar IntersectionExampleScenario.node[481].nic.mac1609_4 	SNIRLostPackets 	0
scalar IntersectionExampleScenario.node[481].nic.mac1609_4 	RXTXLostPackets 	0
scalar IntersectionExampleScenario.node[481].nic.mac1609_4 	TotalLostPackets 	0
scalar IntersectionExampleScenario.node[481].nic.mac1609_4 	DroppedPacketsInMac 	0
scalar IntersectionExampleScenario.node[481].nic.mac1609_4 	TooLittleTime 	0
scalar IntersectionExampleScenario.node[481].nic.mac1609_4 	TimesIntoBackoff 	0
scalar IntersectionExampleScenario.node[481].nic.mac1609_4 	SlotsBackoff 	0
scalar IntersectionExampleScenario.node[481].nic.mac1609_4 	NumInternalContention 	0
scalar IntersectionExampleScenario.node[481].nic.mac1609_4 	totalBusyTime 	0
scalar IntersectionExampleScenario.node[481].veinsmobility 	startTime 	1799.25
scalar IntersectionExampleScenario.node[481].veinsmobility 	totalTime 	0.75
scalar IntersectionExampleScenario.node[481].veinsmobility 	stopTime 	1800
scalar IntersectionExampleScenario.node[481].veinsmobility 	minSpeed 	5.6500000953674
scalar IntersectionExampleScenario.node[481].veinsmobility 	maxSpeed 	6.9000000953674
scalar IntersectionExampleScenario.node[481].veinsmobility 	totalDistance 	4.4718627929688
scalar IntersectionExampleScenario.node[481].veinsmobility 	totalCO2Emission 	2.7116680206665
