file 16825347 1591480637                                        
version 2
run nodebug-42-20200606-17:54:32-10964
attr configname nodebug
attr datetime 20200606-17:54:32
attr experiment nodebug
attr inifile omnetpp.ini
attr iterationvars ""
attr iterationvars2 $repetition=42
attr measurement ""
attr network "\"org.car2x.veins.modules.application.ExtTraCIScenarioManagerLaunchd.IntersectionExampleScenario\""
attr processid 10964
attr repetition 42
attr replication #42
attr resultdir results
attr runnumber 42
attr seedset 42
param **.coreDebug false
param **.debug false
param *.**.nic.mac1609_4.bitrate 18Mbps
param *.**.nic.mac1609_4.txPower 20mW
param *.**.nic.mac1609_4.useServiceChannel false
param *.**.nic.phy80211p.analogueModels "xmldoc(\"config.xml\")"
param *.**.nic.phy80211p.decider "xmldoc(\"config.xml\")"
param *.**.nic.phy80211p.sensitivity -89dBm
param *.**.nic.phy80211p.thermalNoise -110dBm
param *.**.nic.phy80211p.usePropagationDelay true
param *.**.nic.phy80211p.useThermalNoise true
param *.annotations.draw false
param *.connectionManager.alpha 2.0
param *.connectionManager.carrierFrequency "5.890e9 Hz"
param *.connectionManager.pMax 20mW
param *.connectionManager.sat -89dBm
param *.connectionManager.sendDirect true
param *.manager.autoShutdown true
param *.manager.host "\"localhost\""
param *.manager.launchConfig "xmldoc(\"paramics.launchd.xml\")"
param *.manager.margin 25
param *.manager.moduleDisplayString "\"\""
param *.manager.moduleName "\"node\""
param *.manager.moduleType "\"org.car2x.veins.nodes.Car\""
param *.manager.port 9999
param *.manager.updateInterval 250ms
param *.node[*0].veinsmobility.accidentCount 0
param *.node[*0].veinsmobility.accidentDuration 30s
param *.node[*0].veinsmobility.accidentStart 75s
param *.node[*].appl.LiderSelectZoneRadio 55.0
param *.node[*].appl.ShareDataZoneRadio 110.0
param *.node[*].appl.TiempoSemaforo 30.0
param *.node[*].appl.beaconInterval 1s
param *.node[*].appl.beaconPriority 3
param *.node[*].appl.dataOnSch false
param *.node[*].appl.dataPriority 2
param *.node[*].appl.debug false
param *.node[*].appl.headerLength "256 bit"
param *.node[*].appl.maxOffset 0.005s
param *.node[*].appl.sendBeacons false
param *.node[*].appl.sendData true
param *.node[*].applType "\"Dummy\""
param *.node[*].mobilityType "\"TraCIMobility\""
param *.node[*].mobilityType.debug true
param *.node[*].veinsmobility.x 0
param *.node[*].veinsmobility.y 0
param *.node[*].veinsmobility.z 1.895
param *.node[*].veinsmobilityType "\"org.car2x.veins.modules.mobility.traci.TraCIMobility\""
param *.node[*].veinsmobilityType.debug true
param *.playgroundSizeX 8500m
param *.playgroundSizeY 8500m
param *.playgroundSizeZ 50m
param *.world.use2D false
param *.world.useTorus false

vector 53543  IntersectionExampleScenario.manager  vehiclesinsim  ETV
attr type  int
vector 53544  IntersectionExampleScenario.manager  realtime  ETV
attr type  int
attr unit  s
vector 53547  IntersectionExampleScenario.node[0].veinsmobility  posx  ETV
vector 53548  IntersectionExampleScenario.node[0].veinsmobility  posy  ETV
vector 53549  IntersectionExampleScenario.node[0].veinsmobility  speed  ETV
vector 53550  IntersectionExampleScenario.node[0].veinsmobility  acceleration  ETV
vector 53551  IntersectionExampleScenario.node[0].veinsmobility  co2emission  ETV
vector 53554  IntersectionExampleScenario.node[1].veinsmobility  posx  ETV
vector 53555  IntersectionExampleScenario.node[1].veinsmobility  posy  ETV
vector 53556  IntersectionExampleScenario.node[1].veinsmobility  speed  ETV
vector 53557  IntersectionExampleScenario.node[1].veinsmobility  acceleration  ETV
vector 53558  IntersectionExampleScenario.node[1].veinsmobility  co2emission  ETV
vector 53561  IntersectionExampleScenario.node[2].veinsmobility  posx  ETV
vector 53562  IntersectionExampleScenario.node[2].veinsmobility  posy  ETV
vector 53568  IntersectionExampleScenario.node[3].veinsmobility  posx  ETV
vector 53569  IntersectionExampleScenario.node[3].veinsmobility  posy  ETV
vector 53563  IntersectionExampleScenario.node[2].veinsmobility  speed  ETV
vector 53575  IntersectionExampleScenario.node[4].veinsmobility  posx  ETV
vector 53576  IntersectionExampleScenario.node[4].veinsmobility  posy  ETV
vector 53564  IntersectionExampleScenario.node[2].veinsmobility  acceleration  ETV
vector 53565  IntersectionExampleScenario.node[2].veinsmobility  co2emission  ETV
vector 53570  IntersectionExampleScenario.node[3].veinsmobility  speed  ETV
vector 53571  IntersectionExampleScenario.node[3].veinsmobility  acceleration  ETV
vector 53572  IntersectionExampleScenario.node[3].veinsmobility  co2emission  ETV
vector 53577  IntersectionExampleScenario.node[4].veinsmobility  speed  ETV
vector 53578  IntersectionExampleScenario.node[4].veinsmobility  acceleration  ETV
vector 53579  IntersectionExampleScenario.node[4].veinsmobility  co2emission  ETV
vector 53582  IntersectionExampleScenario.node[5].veinsmobility  posx  ETV
vector 53583  IntersectionExampleScenario.node[5].veinsmobility  posy  ETV
vector 53584  IntersectionExampleScenario.node[5].veinsmobility  speed  ETV
vector 53585  IntersectionExampleScenario.node[5].veinsmobility  acceleration  ETV
vector 53586  IntersectionExampleScenario.node[5].veinsmobility  co2emission  ETV
vector 53589  IntersectionExampleScenario.node[6].veinsmobility  posx  ETV
vector 53590  IntersectionExampleScenario.node[6].veinsmobility  posy  ETV
vector 53591  IntersectionExampleScenario.node[6].veinsmobility  speed  ETV
vector 53592  IntersectionExampleScenario.node[6].veinsmobility  acceleration  ETV
vector 53593  IntersectionExampleScenario.node[6].veinsmobility  co2emission  ETV
vector 53596  IntersectionExampleScenario.node[7].veinsmobility  posx  ETV
vector 53597  IntersectionExampleScenario.node[7].veinsmobility  posy  ETV
vector 53598  IntersectionExampleScenario.node[7].veinsmobility  speed  ETV
vector 53599  IntersectionExampleScenario.node[7].veinsmobility  acceleration  ETV
vector 53600  IntersectionExampleScenario.node[7].veinsmobility  co2emission  ETV
vector 53603  IntersectionExampleScenario.node[8].veinsmobility  posx  ETV
vector 53604  IntersectionExampleScenario.node[8].veinsmobility  posy  ETV
vector 53605  IntersectionExampleScenario.node[8].veinsmobility  speed  ETV
vector 53606  IntersectionExampleScenario.node[8].veinsmobility  acceleration  ETV
vector 53607  IntersectionExampleScenario.node[8].veinsmobility  co2emission  ETV
53551	6500 4869 16 1416 2.75 41.75 157 0.973 11.648172402475 491.52726649725 2636.9338880946
53550	11369 4399 16 1416 2.75 41.75 157 -3.3749542236328 2.5 38.511121749878 234.68505931777
53549	15768 4754 13 1416 2.5 41.75 158 5.6500000953674 15.64999961853 2208.4045886993 31807.745820974
53548	20522 5066 10 1416 2.25 41.75 159 236.83752441406 486.85000610352 69019.078063965 30914108.780926
53547	25588 5059 10 1416 2.25 41.75 159 483.14999389648 785.82187652588 90917.97403717 53762069.37164
vector 53610  IntersectionExampleScenario.node[9].veinsmobility  posx  ETV
vector 53611  IntersectionExampleScenario.node[9].veinsmobility  posy  ETV
vector 53612  IntersectionExampleScenario.node[9].veinsmobility  speed  ETV
vector 53613  IntersectionExampleScenario.node[9].veinsmobility  acceleration  ETV
vector 53614  IntersectionExampleScenario.node[9].veinsmobility  co2emission  ETV
vector 53617  IntersectionExampleScenario.node[10].veinsmobility  posx  ETV
vector 53618  IntersectionExampleScenario.node[10].veinsmobility  posy  ETV
vector 53619  IntersectionExampleScenario.node[10].veinsmobility  speed  ETV
vector 53620  IntersectionExampleScenario.node[10].veinsmobility  acceleration  ETV
vector 53621  IntersectionExampleScenario.node[10].veinsmobility  co2emission  ETV
53558	31444 4783 86 1653 8.25 46.5 154 0.973 12.099024792222 529.17697967688 3104.6681840528
53557	36227 4339 86 1653 8.25 46.5 154 -3.4132823944092 2.5 41.736440658569 303.38257752689
53556	40566 4649 81 1653 8 46.5 155 5.6500000953674 16.297313690186 2183.2481350899 32409.222321095
53555	45215 5031 76 1653 7.75 46.5 156 237.14056396484 483.14999389648 67596.860839844 30170591.314783
53554	50246 5009 76 1653 7.75 46.5 156 184.17810058594 483.14999389648 61981.536865234 26328149.323267
vector 53624  IntersectionExampleScenario.node[11].veinsmobility  posx  ETV
vector 53625  IntersectionExampleScenario.node[11].veinsmobility  posy  ETV
vector 53626  IntersectionExampleScenario.node[11].veinsmobility  speed  ETV
vector 53627  IntersectionExampleScenario.node[11].veinsmobility  acceleration  ETV
vector 53628  IntersectionExampleScenario.node[11].veinsmobility  co2emission  ETV
vector 53631  IntersectionExampleScenario.node[12].veinsmobility  posx  ETV
vector 53632  IntersectionExampleScenario.node[12].veinsmobility  posy  ETV
vector 53633  IntersectionExampleScenario.node[12].veinsmobility  speed  ETV
vector 53634  IntersectionExampleScenario.node[12].veinsmobility  acceleration  ETV
vector 53635  IntersectionExampleScenario.node[12].veinsmobility  co2emission  ETV
53579	56057 4898 239 2107 15 54 157 0.90753377507377 12.553400930962 559.18171901354 3428.6039127158
53578	60955 4599 239 2107 15 54 157 -3.4038848876953 2.5 43.094457626343 383.4486725078
53577	65554 4874 228 2107 14.75 54 158 3.8454976081848 16.89999961853 2191.2569818497 32796.074931104
53576	70428 5141 217 2107 14.5 54 159 184.17810058594 483.20886230469 63502.851135254 27068787.70218
53575	75569 5170 217 2107 14.5 54 159 486.85000610352 735.10836791992 85157.155349731 46506528.258466
53565	80739 5334 217 2257 14.5 56.5 169 0.973 11.200708441096 522.62820342667 2605.6996724266
53564	86073 4801 217 2257 14.5 56.5 169 -3.2677268981934 2.5 37.492597579956 297.47319443439
53563	90874 5515 208 2257 14.25 56.5 170 5.2109956741333 15.028741836548 2210.5435528755 30568.385779479
53562	96389 5559 201 2257 14 56.5 171 483.14999389648 785.82187652588 97021.428657532 56893462.699876
53561	101948 5560 201 2257 14 56.5 171 483.14999389648 734.67179870605 91301.180511475 49753937.245036
vector 53638  IntersectionExampleScenario.node[13].veinsmobility  posx  ETV
vector 53639  IntersectionExampleScenario.node[13].veinsmobility  posy  ETV
vector 53645  IntersectionExampleScenario.node[14].veinsmobility  posx  ETV
vector 53646  IntersectionExampleScenario.node[14].veinsmobility  posy  ETV
vector 53640  IntersectionExampleScenario.node[13].veinsmobility  speed  ETV
vector 53647  IntersectionExampleScenario.node[14].veinsmobility  speed  ETV
vector 53641  IntersectionExampleScenario.node[13].veinsmobility  acceleration  ETV
vector 53642  IntersectionExampleScenario.node[13].veinsmobility  co2emission  ETV
vector 53648  IntersectionExampleScenario.node[14].veinsmobility  acceleration  ETV
vector 53649  IntersectionExampleScenario.node[14].veinsmobility  co2emission  ETV
vector 53652  IntersectionExampleScenario.node[15].veinsmobility  posx  ETV
vector 53653  IntersectionExampleScenario.node[15].veinsmobility  posy  ETV
vector 53659  IntersectionExampleScenario.node[16].veinsmobility  posx  ETV
vector 53660  IntersectionExampleScenario.node[16].veinsmobility  posy  ETV
vector 53654  IntersectionExampleScenario.node[15].veinsmobility  speed  ETV
vector 53655  IntersectionExampleScenario.node[15].veinsmobility  acceleration  ETV
vector 53656  IntersectionExampleScenario.node[15].veinsmobility  co2emission  ETV
vector 53661  IntersectionExampleScenario.node[16].veinsmobility  speed  ETV
vector 53662  IntersectionExampleScenario.node[16].veinsmobility  acceleration  ETV
vector 53663  IntersectionExampleScenario.node[16].veinsmobility  co2emission  ETV
vector 53666  IntersectionExampleScenario.node[17].veinsmobility  posx  ETV
vector 53667  IntersectionExampleScenario.node[17].veinsmobility  posy  ETV
53586	109266 4866 672 2765 24.75 63.25 155 0.973 11.674662339656 505.92454679125 2891.9707765244
53585	114132 4748 672 2765 24.75 63.25 155 -3.6021270751953 2.5 39.529638290405 256.5521904816
53584	118880 4826 659 2765 24.5 63.25 156 5.6500000953674 16.063537597656 2206.412858963 32214.219833239
53583	123706 5145 646 2765 24.25 63.25 157 483.14999389648 785.82187652588 89828.696739197 53156021.300171
53582	128851 5143 646 2765 24.25 63.25 157 483.14999389648 732.5827331543 84077.938278198 45960607.609546
vector 53668  IntersectionExampleScenario.node[17].veinsmobility  speed  ETV
vector 53669  IntersectionExampleScenario.node[17].veinsmobility  acceleration  ETV
vector 53670  IntersectionExampleScenario.node[17].veinsmobility  co2emission  ETV
53572	134241 6195 228 3122 14.75 67.5 212 0.973 12.353032912318 612.90897243243 3403.9153017119
53571	140436 5687 228 3122 14.75 67.5 212 -7.4689702987671 4 41.736440658569 516.10957977028
53570	146123 5922 217 3122 14.5 67.5 213 0 16.625 2213.9955453873 32882.297825966
53569	152045 6991 208 3122 14.25 67.5 214 486.85000610352 486.85000610352 104185.90130615 50722906.6868
53568	159036 6975 208 3122 14.25 67.5 214 236.46844482422 785.82187652588 110327.590065 60896515.056632
vector 53673  IntersectionExampleScenario.node[18].veinsmobility  posx  ETV
vector 53674  IntersectionExampleScenario.node[18].veinsmobility  posy  ETV
vector 53675  IntersectionExampleScenario.node[18].veinsmobility  speed  ETV
vector 53680  IntersectionExampleScenario.node[19].veinsmobility  posx  ETV
vector 53681  IntersectionExampleScenario.node[19].veinsmobility  posy  ETV
vector 53676  IntersectionExampleScenario.node[18].veinsmobility  acceleration  ETV
vector 53677  IntersectionExampleScenario.node[18].veinsmobility  co2emission  ETV
vector 53682  IntersectionExampleScenario.node[19].veinsmobility  speed  ETV
vector 53683  IntersectionExampleScenario.node[19].veinsmobility  acceleration  ETV
vector 53684  IntersectionExampleScenario.node[19].veinsmobility  co2emission  ETV
53600	166813 5016 1259 3941 38 77 157 0.973 11.810082123732 515.43055861261 2886.8724378541
53599	171829 4517 1259 3941 38 77 157 -3.4797992706299 2.5 39.869146347046 288.3537892539
53598	176346 4901 1246 3941 37.75 77 158 5.6500000953674 15.875 2188.3650727272 31769.767524
53597	181247 5208 1233 3941 37.5 77 159 486.85000610352 734.21775817871 85471.097793579 46861496.956436
53596	186455 5236 1233 3941 37.5 77 159 486.85000610352 785.82187652588 91043.511863708 53856883.081526
53593	191691 5763 991 4102 32 78.75 188 0.973 11.648172402475 570.03005574098 2958.6451637387
53592	197454 5424 991 4102 32 78.75 188 -6.9388580322266 4 39.869146347046 472.65275473308
53591	202878 5752 980 4102 31.75 78.75 189 0 15.879887580872 2189.8711857796 31546.675620604
53590	208630 6257 969 4102 31.5 78.75 190 483.14999389648 735.07252502441 100129.16461182 53800834.956163
53589	214887 6245 969 4102 31.5 78.75 190 184.17810058594 486.85000610352 78001.888671875 33921859.473851
vector 53687  IntersectionExampleScenario.node[20].veinsmobility  posx  ETV
vector 53688  IntersectionExampleScenario.node[20].veinsmobility  posy  ETV
vector 53689  IntersectionExampleScenario.node[20].veinsmobility  speed  ETV
53621	221364 4845 1653 4578 46.5 84.25 152 0.973 12.127871212024 528.39235084799 3198.5458197956
53620	226209 4532 1653 4578 46.5 84.25 152 -3.2739906311035 2.5000038146973 41.736440658569 277.34901544673
53619	230741 4736 1638 4578 46.25 84.25 153 5.6500000953674 16.314804077148 2215.6515369415 33247.03004479
53618	235477 5071 1623 4578 46 84.25 154 483.14999389648 734.88746643066 82506.146331787 45133199.500965
53617	240548 5048 1623 4578 46 84.25 154 184.17810058594 486.87530517578 61268.070068359 26108913.837786
vector 53690  IntersectionExampleScenario.node[20].veinsmobility  acceleration  ETV
vector 53691  IntersectionExampleScenario.node[20].veinsmobility  co2emission  ETV
vector 53694  IntersectionExampleScenario.node[21].veinsmobility  posx  ETV
vector 53695  IntersectionExampleScenario.node[21].veinsmobility  posy  ETV
vector 53696  IntersectionExampleScenario.node[21].veinsmobility  speed  ETV
vector 53697  IntersectionExampleScenario.node[21].veinsmobility  acceleration  ETV
vector 53698  IntersectionExampleScenario.node[21].veinsmobility  co2emission  ETV
vector 53701  IntersectionExampleScenario.node[22].veinsmobility  posx  ETV
vector 53702  IntersectionExampleScenario.node[22].veinsmobility  posy  ETV
vector 53708  IntersectionExampleScenario.node[23].veinsmobility  posx  ETV
vector 53709  IntersectionExampleScenario.node[23].veinsmobility  posy  ETV
vector 53703  IntersectionExampleScenario.node[22].veinsmobility  speed  ETV
vector 53704  IntersectionExampleScenario.node[22].veinsmobility  acceleration  ETV
vector 53705  IntersectionExampleScenario.node[22].veinsmobility  co2emission  ETV
vector 53710  IntersectionExampleScenario.node[23].veinsmobility  speed  ETV
vector 53715  IntersectionExampleScenario.node[24].veinsmobility  posx  ETV
vector 53716  IntersectionExampleScenario.node[24].veinsmobility  posy  ETV
vector 53711  IntersectionExampleScenario.node[23].veinsmobility  acceleration  ETV
vector 53712  IntersectionExampleScenario.node[23].veinsmobility  co2emission  ETV
vector 53717  IntersectionExampleScenario.node[24].veinsmobility  speed  ETV
vector 53718  IntersectionExampleScenario.node[24].veinsmobility  acceleration  ETV
vector 53719  IntersectionExampleScenario.node[24].veinsmobility  co2emission  ETV
53642	247369 4892 2400 5521 58.75 96.5 152 0.973 11.990504229548 480.2542757949 2610.1349930128
53641	252261 4484 2400 5521 58.75 96.5 152 -3.5095138549805 2.5 39.529638290405 206.13668396455
53640	256745 4792 2381 5521 58.5 96.5 153 5.6500000953674 16.125 2221.3488578796 32954.778624873
53639	261537 5055 2362 5521 58.25 96.5 154 184.17810058594 734.21243286133 69068.311187744 35082259.512049
53638	266592 5083 2362 5521 58.25 96.5 154 486.85000610352 486.85000610352 74974.900939941 36501530.980221
vector 53722  IntersectionExampleScenario.node[25].veinsmobility  posx  ETV
vector 53723  IntersectionExampleScenario.node[25].veinsmobility  posy  ETV
vector 53724  IntersectionExampleScenario.node[25].veinsmobility  speed  ETV
vector 53725  IntersectionExampleScenario.node[25].veinsmobility  acceleration  ETV
vector 53726  IntersectionExampleScenario.node[25].veinsmobility  co2emission  ETV
53663	272076 4965 2579 5786 61 99.75 156 0.973 12.099024792222 519.1732516405 3010.8909347161
53662	277041 4696 2579 5786 61 99.75 156 -3.3001289367676 2.5 40.378400802612 295.58409977754
53661	281737 4855 2558 5786 60.75 99.75 157 5.6500000953674 16.27499961853 2181.9523391724 31860.576198943
53660	286592 5202 2536 5786 60.5 99.75 158 486.81158447266 785.82187652588 90460.5573349 53506899.976932
53659	291794 5213 2536 5786 60.5 99.75 158 237.35736083984 483.14999389648 68426.106201172 30527759.339738
vector 53729  IntersectionExampleScenario.node[26].veinsmobility  posx  ETV
vector 53730  IntersectionExampleScenario.node[26].veinsmobility  posy  ETV
vector 53731  IntersectionExampleScenario.node[26].veinsmobility  speed  ETV
vector 53736  IntersectionExampleScenario.node[27].veinsmobility  posx  ETV
vector 53737  IntersectionExampleScenario.node[27].veinsmobility  posy  ETV
vector 53732  IntersectionExampleScenario.node[26].veinsmobility  acceleration  ETV
vector 53733  IntersectionExampleScenario.node[26].veinsmobility  co2emission  ETV
vector 53738  IntersectionExampleScenario.node[27].veinsmobility  speed  ETV
vector 53739  IntersectionExampleScenario.node[27].veinsmobility  acceleration  ETV
vector 53740  IntersectionExampleScenario.node[27].veinsmobility  co2emission  ETV
53607	297809 7145 1405 6067 41.5 103.25 248 0.97223939240464 11.810082123732 630.38846952486 3214.8768967327
53606	304954 6693 1405 6067 41.5 103.25 248 -7.7040786743164 4 38.680875778198 505.36364781899
53605	311647 6784 1394 6067 41.25 103.25 249 0 15.875 2221.9851834774 31453.602904277
53604	318431 8192 1383 6067 41 103.25 250 486.85000610352 734.74661254883 129952.55200195 68637134.272821
53603	326623 8255 1383 6067 41 103.25 250 486.63604736328 795.46562957764 137356.17562866 77691477.944346
53614	334878 7651 1519 6243 44 105.5 247 0.973 11.810082123732 636.35145162631 3115.5844774135
53613	342529 7360 1519 6243 44 105.5 247 -4.5 2.5 39.869146347046 446.36029510283
53612	349889 7664 1506 6243 43.75 105.5 248 0 15.875 2273.2185438089 32213.583347531
53611	357553 8234 1493 6243 43.5 105.5 249 486.85000610352 735.05262756348 129348.11181641 68265988.68046
53610	365787 8203 1493 6243 43.5 105.5 249 486.74243164062 806.23751068115 138232.75846863 79094307.200269
vector 53743  IntersectionExampleScenario.node[28].veinsmobility  posx  ETV
vector 53744  IntersectionExampleScenario.node[28].veinsmobility  posy  ETV
vector 53745  IntersectionExampleScenario.node[28].veinsmobility  speed  ETV
vector 53746  IntersectionExampleScenario.node[28].veinsmobility  acceleration  ETV
vector 53747  IntersectionExampleScenario.node[28].veinsmobility  co2emission  ETV
53635	374391 6704 1916 6341 51 106.75 224 0.973 12.353032912318 612.06656763273 3263.8734601622
53634	381095 7009 1916 6341 51 106.75 224 -3.7240588665009 2.5 42.585195541382 349.58560821194
53633	388104 7149 1899 6341 50.75 106.75 225 0 16.625 2211.771061603 30461.594274541
53632	395253 7476 1882 6341 50.5 106.75 226 236.07977294922 486.85000610352 102089.55450439 47161161.624349
53631	402729 7455 1882 6341 50.5 106.75 226 483.1448059082 785.82187652588 125673.85417938 71761236.009027
vector 53750  IntersectionExampleScenario.node[29].veinsmobility  posx  ETV
vector 53751  IntersectionExampleScenario.node[29].veinsmobility  posy  ETV
vector 53752  IntersectionExampleScenario.node[29].veinsmobility  speed  ETV
vector 53753  IntersectionExampleScenario.node[29].veinsmobility  acceleration  ETV
vector 53754  IntersectionExampleScenario.node[29].veinsmobility  co2emission  ETV
vector 53757  IntersectionExampleScenario.node[30].veinsmobility  posx  ETV
vector 53758  IntersectionExampleScenario.node[30].veinsmobility  posy  ETV
vector 53759  IntersectionExampleScenario.node[30].veinsmobility  speed  ETV
vector 53760  IntersectionExampleScenario.node[30].veinsmobility  acceleration  ETV
vector 53761  IntersectionExampleScenario.node[30].veinsmobility  co2emission  ETV
vector 53764  IntersectionExampleScenario.node[31].veinsmobility  posx  ETV
vector 53765  IntersectionExampleScenario.node[31].veinsmobility  posy  ETV
53677	411140 4942 3458 6651 71.75 110.5 156 0.973 11.90022389248 525.12161322895 3197.6092274681
53676	416082 4773 3458 6651 71.75 110.5 156 -3.7274475097656 2.5 39.869146347046 276.10859388119
53675	420855 4925 3437 6651 71.5 110.5 157 5.6500000953674 16 2205.5154676437 31979.39802045
53674	425780 5249 3416 6651 71.25 110.5 158 236.9150390625 486.85000610352 68718.919250488 30827707.65639
53673	431029 5249 3416 6651 71.25 110.5 158 482.97659301758 785.82187652588 90430.347679138 53511554.636826
vector 53766  IntersectionExampleScenario.node[31].veinsmobility  speed  ETV
vector 53767  IntersectionExampleScenario.node[31].veinsmobility  acceleration  ETV
vector 53768  IntersectionExampleScenario.node[31].veinsmobility  co2emission  ETV
vector 53771  IntersectionExampleScenario.node[32].veinsmobility  posx  ETV
vector 53772  IntersectionExampleScenario.node[32].veinsmobility  posy  ETV
vector 53773  IntersectionExampleScenario.node[32].veinsmobility  speed  ETV
vector 53774  IntersectionExampleScenario.node[32].veinsmobility  acceleration  ETV
vector 53775  IntersectionExampleScenario.node[32].veinsmobility  co2emission  ETV
vector 53778  IntersectionExampleScenario.node[33].veinsmobility  posx  ETV
vector 53779  IntersectionExampleScenario.node[33].veinsmobility  posy  ETV
vector 53780  IntersectionExampleScenario.node[33].veinsmobility  speed  ETV
vector 53781  IntersectionExampleScenario.node[33].veinsmobility  acceleration  ETV
vector 53782  IntersectionExampleScenario.node[33].veinsmobility  co2emission  ETV
53628	437327 7631 1807 7051 49.25 114.5 262 0.973 11.36141391502 626.50494591202 2872.3948568401
53627	444958 6814 1807 7051 49.25 114.5 262 -26.613441467285 4 37.15309715271 1074.8363828865
53626	451772 7103 1792 7051 49 114.5 263 0 15.25 2232.4071130753 31259.827459137
53625	458875 8706 1777 7051 48.75 114.5 264 236.84155273438 483.14999389648 119214.2600708 54935918.563775
53624	467581 8751 1777 7051 48.75 114.5 264 169.95465087891 483.36395263672 111173.32583618 49186416.936444
vector 53785  IntersectionExampleScenario.node[34].veinsmobility  posx  ETV
vector 53786  IntersectionExampleScenario.node[34].veinsmobility  posy  ETV
vector 53787  IntersectionExampleScenario.node[34].veinsmobility  speed  ETV
53649	476564 6944 2400 7188 58.75 115.75 229 0.973 11.648172402475 583.77769323098 2903.4320856785
53648	483508 7285 2400 7188 58.75 115.75 229 -3.7472262382507 2.5000004768372 37.662351608276 340.60524516226
53647	490793 7419 2381 7188 58.5 115.75 230 0 15.64999961853 2206.7482497562 29049.410009192
53646	498212 7677 2362 7188 58.25 115.75 231 483.14999389648 733.00839233398 120090.89767456 63533614.492613
53645	505889 7654 2362 7188 58.25 115.75 231 184.17810058594 487.05569458008 96054.792144775 41903482.147118
vector 53788  IntersectionExampleScenario.node[34].veinsmobility  acceleration  ETV
vector 53789  IntersectionExampleScenario.node[34].veinsmobility  co2emission  ETV
53656	513712 6963 2558 7420 60.75 117.75 229 0.97223939240464 11.648172402475 598.77851915563 2931.2300597276
53655	520675 7258 2558 7420 60.75 117.75 229 -4.5 2.5 38.680875778198 404.20578013545
53654	527933 7407 2536 7420 60.5 117.75 230 0 15.64999961853 2278.0249620713 29889.17334088
53653	535340 7690 2515 7420 60.25 117.75 231 483.14999389648 732.74041748047 119945.14724731 63365804.080308
53652	543030 7649 2515 7420 60.25 117.75 231 166.078125 486.87762451172 93723.814331055 40222697.719781
53684	550679 5719 3504 7610 72.25 119.5 190 0.973 12.099024792222 563.05505773471 3096.5081842425
53683	556398 5748 3504 7610 72.25 119.5 190 -4.0784225463867 2.5000009536743 41.057416915894 336.15290964082
53682	562146 6094 3481 7610 72 119.5 191 2.1232180595398 16.27499961853 2208.7491672039 29553.673849847
53681	568240 6408 3458 7610 71.75 119.5 192 483.14999389648 732.88565063477 100829.15745544 53950634.600544
53680	574648 6386 3458 7610 71.75 119.5 192 184.17810058594 486.85000610352 77640.773742676 33197449.008314
vector 53792  IntersectionExampleScenario.node[35].veinsmobility  posx  ETV
vector 53793  IntersectionExampleScenario.node[35].veinsmobility  posy  ETV
vector 53794  IntersectionExampleScenario.node[35].veinsmobility  speed  ETV
vector 53795  IntersectionExampleScenario.node[35].veinsmobility  acceleration  ETV
vector 53796  IntersectionExampleScenario.node[35].veinsmobility  co2emission  ETV
53691	581435 4885 4599 7907 84.5 122.25 152 0.973 11.990504229548 518.41518537679 3178.9876836196
53690	586320 4710 4599 7907 84.5 122.25 152 -3.4039001464844 2.5 39.699392318726 254.5070370728
53689	591030 4889 4578 7907 84.25 122.25 153 5.6500000953674 16.125 2218.6380939484 32873.972924874
53688	595919 5171 4557 7907 84 122.25 154 483.14999389648 483.14999389648 74405.099060059 35948823.156735
53687	601090 5143 4557 7907 84 122.25 154 184.17810058594 733.4714050293 68958.386108398 34962911.236808
vector 53799  IntersectionExampleScenario.node[36].veinsmobility  posx  ETV
vector 53800  IntersectionExampleScenario.node[36].veinsmobility  posy  ETV
vector 53801  IntersectionExampleScenario.node[36].veinsmobility  speed  ETV
vector 53802  IntersectionExampleScenario.node[36].veinsmobility  acceleration  ETV
vector 53803  IntersectionExampleScenario.node[36].veinsmobility  co2emission  ETV
53670	606634 7359 2807 8297 63.75 125.75 249 0.973 11.200708441096 603.21267274621 2734.0841985775
53669	613993 6495 2807 8297 63.75 125.75 249 -26.89200592041 4 35.964826583862 1100.9515173665
53668	620488 6916 2786 8297 63.5 125.75 250 0 15.02499961853 2193.3306379318 30332.825237114
53667	627404 8358 2765 8297 63.25 125.75 251 184.17810058594 486.85000610352 106381.57650757 47203481.093566
53666	635762 8381 2765 8297 63.25 125.75 251 238.12384033203 486.85000610352 113558.06375122 52512024.243156
vector 53806  IntersectionExampleScenario.node[37].veinsmobility  posx  ETV
vector 53807  IntersectionExampleScenario.node[37].veinsmobility  posy  ETV
vector 53808  IntersectionExampleScenario.node[37].veinsmobility  speed  ETV
vector 53809  IntersectionExampleScenario.node[37].veinsmobility  acceleration  ETV
vector 53810  IntersectionExampleScenario.node[37].veinsmobility  co2emission  ETV
vector 53813  IntersectionExampleScenario.node[38].veinsmobility  posx  ETV
vector 53814  IntersectionExampleScenario.node[38].veinsmobility  posy  ETV
vector 53815  IntersectionExampleScenario.node[38].veinsmobility  speed  ETV
vector 53816  IntersectionExampleScenario.node[38].veinsmobility  acceleration  ETV
vector 53817  IntersectionExampleScenario.node[38].veinsmobility  co2emission  ETV
vector 53820  IntersectionExampleScenario.node[39].veinsmobility  posx  ETV
vector 53821  IntersectionExampleScenario.node[39].veinsmobility  posy  ETV
vector 53822  IntersectionExampleScenario.node[39].veinsmobility  speed  ETV
vector 53823  IntersectionExampleScenario.node[39].veinsmobility  acceleration  ETV
vector 53824  IntersectionExampleScenario.node[39].veinsmobility  co2emission  ETV
53705	645346 5165 5418 9349 95.25 134 156 0.973 11.54047740176 464.63231158543 2336.4085283449
53704	650511 4598 5418 9349 95.25 134 156 -2.906135559082 2.5 37.32285118103 179.22973075835
53703	655109 5080 5399 9349 95 134 157 5.6500000953674 15.5 2216.590294838 31875.992361842
53702	660189 5277 5382 9349 94.75 134 158 184.17810058594 733.22798156738 70908.541702271 36014724.094117
53701	665466 5350 5382 9349 94.75 134 158 486.85000610352 486.85000610352 76922.300964355 37449622.693993
vector 53827  IntersectionExampleScenario.node[40].veinsmobility  posx  ETV
vector 53828  IntersectionExampleScenario.node[40].veinsmobility  posy  ETV
vector 53829  IntersectionExampleScenario.node[40].veinsmobility  speed  ETV
vector 53830  IntersectionExampleScenario.node[40].veinsmobility  acceleration  ETV
vector 53831  IntersectionExampleScenario.node[40].veinsmobility  co2emission  ETV
vector 53834  IntersectionExampleScenario.node[41].veinsmobility  posx  ETV
vector 53835  IntersectionExampleScenario.node[41].veinsmobility  posy  ETV
vector 53836  IntersectionExampleScenario.node[41].veinsmobility  speed  ETV
vector 53841  IntersectionExampleScenario.node[42].veinsmobility  posx  ETV
vector 53842  IntersectionExampleScenario.node[42].veinsmobility  posy  ETV
vector 53837  IntersectionExampleScenario.node[41].veinsmobility  acceleration  ETV
vector 53838  IntersectionExampleScenario.node[41].veinsmobility  co2emission  ETV
vector 53843  IntersectionExampleScenario.node[42].veinsmobility  speed  ETV
vector 53844  IntersectionExampleScenario.node[42].veinsmobility  acceleration  ETV
vector 53845  IntersectionExampleScenario.node[42].veinsmobility  co2emission  ETV
53719	672019 5491 5479 9918 96 138.25 170 0.973 11.648172402475 545.56287108987 2913.0142168621
53718	677510 5222 5479 9918 96 138.25 170 -8.6358022689819 4 39.020376205444 495.82599980192
53717	682732 5417 5458 9918 95.75 138.25 171 0 15.64999961853 2185.8241887093 31024.700608431
53716	688149 5765 5437 9918 95.5 138.25 172 486.85000610352 735.2879486084 91979.858734131 50153027.567343
53715	693914 5825 5437 9918 95.5 138.25 172 486.63604736328 785.82187652588 97636.600227356 57215006.02908
vector 53848  IntersectionExampleScenario.node[43].veinsmobility  posx  ETV
vector 53849  IntersectionExampleScenario.node[43].veinsmobility  posy  ETV
vector 53850  IntersectionExampleScenario.node[43].veinsmobility  speed  ETV
vector 53851  IntersectionExampleScenario.node[43].veinsmobility  acceleration  ETV
vector 53852  IntersectionExampleScenario.node[43].veinsmobility  co2emission  ETV
vector 53855  IntersectionExampleScenario.node[44].veinsmobility  posx  ETV
vector 53856  IntersectionExampleScenario.node[44].veinsmobility  posy  ETV
vector 53857  IntersectionExampleScenario.node[44].veinsmobility  speed  ETV
vector 53858  IntersectionExampleScenario.node[44].veinsmobility  acceleration  ETV
vector 53859  IntersectionExampleScenario.node[44].veinsmobility  co2emission  ETV
vector 53862  IntersectionExampleScenario.node[45].veinsmobility  posx  ETV
vector 53863  IntersectionExampleScenario.node[45].veinsmobility  posy  ETV
vector 53864  IntersectionExampleScenario.node[45].veinsmobility  speed  ETV
vector 53865  IntersectionExampleScenario.node[45].veinsmobility  acceleration  ETV
vector 53866  IntersectionExampleScenario.node[45].veinsmobility  co2emission  ETV
vector 53869  IntersectionExampleScenario.node[46].veinsmobility  posx  ETV
vector 53870  IntersectionExampleScenario.node[46].veinsmobility  posy  ETV
vector 53871  IntersectionExampleScenario.node[46].veinsmobility  speed  ETV
vector 53872  IntersectionExampleScenario.node[46].veinsmobility  acceleration  ETV
vector 53873  IntersectionExampleScenario.node[46].veinsmobility  co2emission  ETV
vector 53876  IntersectionExampleScenario.node[47].veinsmobility  posx  ETV
vector 53877  IntersectionExampleScenario.node[47].veinsmobility  posy  ETV
vector 53883  IntersectionExampleScenario.node[48].veinsmobility  posx  ETV
vector 53884  IntersectionExampleScenario.node[48].veinsmobility  posy  ETV
vector 53890  IntersectionExampleScenario.node[49].veinsmobility  posx  ETV
vector 53891  IntersectionExampleScenario.node[49].veinsmobility  posy  ETV
vector 53878  IntersectionExampleScenario.node[47].veinsmobility  speed  ETV
vector 53885  IntersectionExampleScenario.node[48].veinsmobility  speed  ETV
vector 53879  IntersectionExampleScenario.node[47].veinsmobility  acceleration  ETV
vector 53880  IntersectionExampleScenario.node[47].veinsmobility  co2emission  ETV
vector 53886  IntersectionExampleScenario.node[48].veinsmobility  acceleration  ETV
vector 53887  IntersectionExampleScenario.node[48].veinsmobility  co2emission  ETV
vector 53892  IntersectionExampleScenario.node[49].veinsmobility  speed  ETV
vector 53893  IntersectionExampleScenario.node[49].veinsmobility  acceleration  ETV
vector 53894  IntersectionExampleScenario.node[49].veinsmobility  co2emission  ETV
53698	702546 7462 4867 11565 87.75 149.5 248 0.973 11.36141391502 609.0086864032 2832.524832378
53697	710008 6688 4867 11565 87.75 149.5 248 -8.5525608062744 4 37.15309715271 477.07662156331
53696	716696 7078 4846 11565 87.5 149.5 249 0 15.25 2221.6960749626 30765.890612297
53695	723774 8428 4825 11565 87.25 149.5 250 236.84155273438 483.14999389648 112450.16015625 51667843.731344
53694	732202 8459 4825 11565 87.25 149.5 250 172.9296875 483.36395263672 104788.76443481 46195529.135637
53712	740661 6978 5437 11750 95.5 150.75 222 0.973 11.36141391502 602.7982121551 2929.0884145334
53711	747639 7384 5437 11750 95.5 150.75 222 -3.9236032962799 2.5 41.566686630249 343.58968709431
53710	755023 7335 5418 11750 95.25 150.75 223 0 16.109910964966 2175.9109534565 30108.458129498
53709	762358 7638 5399 11750 95 150.75 224 239.06097412109 483.14999389648 100536.54959106 46101704.945401
53708	769996 7615 5399 11750 95 150.75 224 184.17810058594 483.19506835938 93020.557830811 40528314.623787
53754	777611 5965 6440 12221 108 154.25 186 0.973 11.200708441096 523.18510916224 2606.6571456966
53753	783576 5869 6440 12221 108 154.25 186 -3.4194679260254 2.5 35.795072555542 278.64507327437
53752	789445 6130 6419 12221 107.75 154.25 187 4.1504545211792 15.02499961853 2179.5735182762 27890.222700543
53751	795575 6446 6398 12221 107.5 154.25 188 238.17907714844 483.14999389648 82400.507781982 37112443.967227
53750	802021 6430 6398 12221 107.5 154.25 188 184.17810058594 483.14999389648 75573.219665527 32191238.986048
vector 53897  IntersectionExampleScenario.node[50].veinsmobility  posx  ETV
vector 53898  IntersectionExampleScenario.node[50].veinsmobility  posy  ETV
53789	808605 5267 7217 12519 116 156.75 164 0.973 11.648172402475 544.98165235513 3192.9374702421
53788	813872 5311 7217 12519 116 156.75 164 -3.3616790771484 2.5 39.529638290405 311.01118532749
53787	819183 5365 7188 12519 115.75 156.75 165 5.6500000953674 15.64999961853 2180.6979751587 30177.321230152
53786	824548 5709 7159 12519 115.5 156.75 166 237.68646240234 483.14999389648 72190.388641357 32310879.551692
53785	830257 5697 7159 12519 115.5 156.75 166 184.17810058594 483.18786621094 65941.209594727 27931781.384741
vector 53899  IntersectionExampleScenario.node[50].veinsmobility  speed  ETV
vector 53900  IntersectionExampleScenario.node[50].veinsmobility  acceleration  ETV
vector 53901  IntersectionExampleScenario.node[50].veinsmobility  co2emission  ETV
vector 53904  IntersectionExampleScenario.node[51].veinsmobility  posx  ETV
vector 53905  IntersectionExampleScenario.node[51].veinsmobility  posy  ETV
vector 53906  IntersectionExampleScenario.node[51].veinsmobility  speed  ETV
vector 53907  IntersectionExampleScenario.node[51].veinsmobility  acceleration  ETV
vector 53908  IntersectionExampleScenario.node[51].veinsmobility  co2emission  ETV
53726	836602 7600 5705 12972 98.75 160.75 249 0.973 11.36141391502 608.43440518452 2825.3476429437
53725	844202 6873 5705 12972 98.75 160.75 249 -7.253737449646 4 36.474081039429 510.36563214392
53724	851075 7183 5684 12972 98.5 160.75 250 0 15.25 2222.521945715 30671.008197497
53723	858258 8592 5663 12972 98.25 160.75 251 174.53436279297 483.36395263672 105347.0171814 46469901.87625
53722	866850 8548 5663 12972 98.25 160.75 251 486.85000610352 734.73731994629 130730.62210083 69206954.158217
53740	875398 7818 5983 13087 102.25 161.75 239 0.973 11.450879080643 607.2347414461 2850.1894666674
53739	883216 7632 5983 13087 102.25 161.75 239 -4.5 2.5000002384186 37.32285118103 441.17924571945
53738	890848 7980 5962 13087 102 161.75 240 0 15.375 2259.7828701809 31122.982562819
53737	898828 8239 5941 13087 101.75 161.75 241 169.71246337891 486.86663818359 100000.61062622 43779229.38527
53736	907067 8275 5941 13087 101.75 161.75 241 237.83294677734 486.85000610352 108859.31655884 50280346.200413
53733	915342 7565 5941 13222 101.75 163 246 0.973 11.200708441096 594.70320167996 2648.9287440203
53732	922907 7203 5941 13222 101.75 163 246 -6.8640689849854 4 35.625318527222 447.66791240645
53731	930110 7526 5921 13222 101.5 163 247 0 15.02499961853 2197.6006128788 29752.084184296
53730	937636 8519 5900 13222 101.25 163 248 482.95388793945 785.82187652588 135647.64304352 76306034.023417
53729	946155 8517 5900 13222 101.25 163 248 483.14999389648 732.75109863281 128591.06439209 67822783.219271
53747	954672 7272 6341 13357 106.75 164.25 231 0.973 11.850867189392 620.18609624537 3053.3692876797
53746	961944 7827 6341 13357 106.75 164.25 231 -4.0261192321777 2.5000009536743 40.81202507019 388.54539657854
53745	969771 7716 6321 13357 106.5 164.25 232 0 15.931580543518 2220.5937750414 29414.877655177
53744	977487 8003 6300 13357 106.25 164.25 233 174.46179199219 483.14999389648 95742.146118164 41391726.993789
53743	985490 8014 6300 13357 106.25 164.25 233 486.85000610352 732.55476379395 121670.45820618 64595326.529924
vector 53911  IntersectionExampleScenario.node[52].veinsmobility  posx  ETV
vector 53912  IntersectionExampleScenario.node[52].veinsmobility  posy  ETV
53775	993658 6718 6793 13492 112 165.5 215 0.973 12.271561256451 611.79482696075 3253.0296113453
53774	1000376 7406 6793 13492 112 165.5 215 -3.8804697990417 2.5000001192093 42.951711654663 338.06520992327
53773	1007782 7424 6768 13492 111.75 165.5 216 0 16.512928009033 2209.6793214269 29412.843682189
53772	1015206 7475 6743 13492 111.5 165.5 217 483.07940673828 785.82187652588 120496.24289703 68823296.064408
53771	1022681 7473 6743 13492 111.5 165.5 217 483.14999389648 734.05133056641 113339.63014221 60278062.407752
vector 53913  IntersectionExampleScenario.node[52].veinsmobility  speed  ETV
vector 53914  IntersectionExampleScenario.node[52].veinsmobility  acceleration  ETV
vector 53915  IntersectionExampleScenario.node[52].veinsmobility  co2emission  ETV
vector 53918  IntersectionExampleScenario.node[53].veinsmobility  posx  ETV
vector 53919  IntersectionExampleScenario.node[53].veinsmobility  posy  ETV
vector 53925  IntersectionExampleScenario.node[54].veinsmobility  posx  ETV
vector 53926  IntersectionExampleScenario.node[54].veinsmobility  posy  ETV
vector 53920  IntersectionExampleScenario.node[53].veinsmobility  speed  ETV
vector 53921  IntersectionExampleScenario.node[53].veinsmobility  acceleration  ETV
vector 53922  IntersectionExampleScenario.node[53].veinsmobility  co2emission  ETV
vector 53927  IntersectionExampleScenario.node[54].veinsmobility  speed  ETV
vector 53928  IntersectionExampleScenario.node[54].veinsmobility  acceleration  ETV
vector 53929  IntersectionExampleScenario.node[54].veinsmobility  co2emission  ETV
53810	1031203 5351 8649 13820 128.75 168.5 160 0.973 11.648172402475 529.61448943292 3062.0025966505
53809	1036554 4999 8649 13820 128.75 168.5 160 -3.7115268707275 2.5 38.341367721558 317.64169239564
53808	1041553 5286 8618 13820 128.5 168.5 161 5.6500000953674 15.64999961853 2183.7061562538 30922.243803921
53807	1046839 5622 8587 13820 128.25 168.5 162 486.85000610352 785.82187652588 92769.489402771 54865745.970331
53806	1052461 5619 8587 13820 128.25 168.5 162 237.05169677734 483.14999389648 70097.611755371 31255799.751428
53768	1058080 7416 6697 13849 111 168.75 232 0.973 10.756497587458 553.18068543701 2349.9800250483
53767	1065496 7686 6697 13849 111 168.75 232 -3.8714551925659 2.5 34.097539901733 310.66938804699
53766	1073182 7926 6674 13849 110.75 168.75 233 0 14.39999961853 2218.8247448951 27107.743399116
53765	1081108 8050 6651 13849 110.5 168.75 234 174.958984375 483.21826171875 95201.699584961 40809718.560796
53764	1089158 8070 6651 13849 110.5 168.75 234 486.85000610352 732.85864257812 122686.19218445 65429027.8601
53782	1097228 7448 6997 14128 114 171.25 230 0.973 10.756497587458 573.51711774182 2526.5267008443
53781	1104676 7195 6997 14128 114 171.25 230 -4.5 2.5 35.455564498901 384.56234605606
53780	1111871 7614 6970 14128 113.75 171.25 231 0 14.542810440063 2264.7384653017 28784.922406472
53779	1119485 7991 6943 14128 113.5 171.25 232 166.79357910156 483.2526550293 93660.856018066 39997026.67808
53778	1127476 8011 6943 14128 113.5 171.25 232 486.85000610352 735.57534790039 121694.76702881 64951328.673896
53817	1135487 5706 8746 14260 129.5 172.5 173 0.973 11.820067315949 535.21037634089 2752.7912850997
53816	1141193 6068 8746 14260 129.5 172.5 173 -4.5 2.5 40.455423355103 255.42982421741
53815	1147261 6030 8713 14260 129.25 172.5 174 5.6500000953674 15.888855934143 2303.4602928162 31783.891952976
53814	1153291 6069 8680 14260 129 172.5 175 483.14999389648 808.82032012939 101042.43608093 60556702.586725
53813	1159360 6077 8680 14260 129 172.5 175 483.14999389648 733.84562683105 93344.516998291 50810783.706979
53796	1165437 6536 7907 14384 122.25 173.75 207 0.96333723109819 12.099024792222 580.01710064971 3086.2806382047
53795	1171973 6681 7907 14384 122.25 173.75 207 -3.9715082645416 2.5 40.208654403687 350.48317955767
53794	1178654 7063 7880 14384 122 173.75 208 0 16.27499961853 2207.5761559904 30167.738972112
53793	1185717 7247 7853 14384 121.75 173.75 209 486.85000610352 486.85000610352 101751.65127563 49537792.044585
53792	1192964 7212 7853 14384 121.75 173.75 209 238.92810058594 785.82187652588 108981.10192108 60850082.580136
53761	1200176 7914 6588 14453 109.75 174.5 260 0.973 10.756497587458 588.47087597174 2455.1070948362
53760	1208090 7041 6588 14453 109.75 174.5 260 -9.6239633560181 4 33.079023361206 486.50761565528
53759	1215131 7542 6567 14453 109.5 174.5 261 0 14.39999961853 2174.1949884892 28421.315677173
53758	1222673 8988 6545 14453 109.25 174.5 262 486.85000610352 732.96734619141 136458.82772827 72229636.142452
53757	1231661 9045 6545 14453 109.25 174.5 262 486.63604736328 785.82187652588 143253.06954956 80468489.83338
vector 53932  IntersectionExampleScenario.node[55].veinsmobility  posx  ETV
vector 53933  IntersectionExampleScenario.node[55].veinsmobility  posy  ETV
vector 53934  IntersectionExampleScenario.node[55].veinsmobility  speed  ETV
vector 53935  IntersectionExampleScenario.node[55].veinsmobility  acceleration  ETV
vector 53936  IntersectionExampleScenario.node[55].veinsmobility  co2emission  ETV
vector 53939  IntersectionExampleScenario.node[56].veinsmobility  posx  ETV
vector 53940  IntersectionExampleScenario.node[56].veinsmobility  posy  ETV
vector 53941  IntersectionExampleScenario.node[56].veinsmobility  speed  ETV
vector 53942  IntersectionExampleScenario.node[56].veinsmobility  acceleration  ETV
vector 53943  IntersectionExampleScenario.node[56].veinsmobility  co2emission  ETV
53845	1241508 5425 9848 14788 137.75 178 162 0.973 11.216791212296 494.98653608143 2742.6892991866
53844	1246933 5229 9848 14788 137.75 178 162 -3.3556976318359 2.5 35.795072555542 228.82241371979
53843	1252162 5480 9813 14788 137.5 178 163 5.6500000953674 15.047543525696 2214.2993688583 30616.182166022
53842	1257642 5733 9778 14788 137.25 178 164 486.85000610352 486.85000610352 79843.401000977 38871760.264651
53841	1263375 5713 9778 14788 137.25 178 164 237.41259765625 785.82187652588 85524.366371155 48860014.628163
53859	1269088 5453 10516 15153 142.5 182.25 160 0.973 11.450879080643 483.55874724144 2498.9327372035
53858	1274541 4970 10516 15153 142.5 182.25 160 -3.2029113769531 2.5 36.98334312439 225.31289334086
53857	1279511 5352 10479 15153 142.25 182.25 161 5.6500000953674 15.375 2213.4105415344 31255.671254689
53856	1284863 5666 10442 15153 142 182.25 162 235.17932128906 486.85000610352 70173.385131836 31389703.239962
53855	1290529 5661 10442 15153 142 182.25 162 483.11968994141 785.82187652588 92608.073554993 54738492.660881
53803	1296190 7217 8181 15241 124.75 183.5 236 0.94426586733069 12.099024792222 635.93701949031 3281.5911536933
53802	1303407 6926 8181 15241 124.75 183.5 236 -8.2181873321533 4 42.415441513062 506.28878906521
53801	1310333 6861 8152 15241 124.5 183.5 237 0 16.307811737061 2175.2371244431 31980.43791286
53800	1317194 8209 8123 15241 124.25 183.5 238 237.74426269531 483.14999389648 107305.54196167 49379344.578875
53799	1325403 8248 8123 15241 124.25 183.5 238 184.17810058594 483.36395263672 100625.91247559 44535824.347509
vector 53946  IntersectionExampleScenario.node[57].veinsmobility  posx  ETV
vector 53947  IntersectionExampleScenario.node[57].veinsmobility  posy  ETV
vector 53948  IntersectionExampleScenario.node[57].veinsmobility  speed  ETV
vector 53949  IntersectionExampleScenario.node[57].veinsmobility  acceleration  ETV
vector 53950  IntersectionExampleScenario.node[57].veinsmobility  co2emission  ETV
vector 53953  IntersectionExampleScenario.node[58].veinsmobility  posx  ETV
vector 53954  IntersectionExampleScenario.node[58].veinsmobility  posy  ETV
vector 53955  IntersectionExampleScenario.node[58].veinsmobility  speed  ETV
vector 53956  IntersectionExampleScenario.node[58].veinsmobility  acceleration  ETV
vector 53957  IntersectionExampleScenario.node[58].veinsmobility  co2emission  ETV
53831	1334453 6340 9577 15397 135.75 185.5 200 0.90753377507377 12.553400930962 592.98251083668 3354.8590129386
53830	1340793 6513 9577 15397 135.75 185.5 200 -3.9085547924042 2.5 43.094457626343 358.02306161277
53829	1347306 6729 9544 15397 135.5 185.5 201 0 16.89999961853 2181.1733524986 30256.568416287
53828	1354035 7035 9511 15397 135.25 185.5 202 238.08508300781 483.14999389648 90010.565032959 41052605.683053
53827	1361070 7014 9511 15397 135.25 185.5 202 184.17810058594 483.15786743164 82778.318725586 35726046.591163
53852	1368084 6187 10302 15649 141 188.5 191 0.973 11.810082123732 549.6658915817 2975.6366588588
53851	1374271 6259 10302 15649 141 188.5 191 -3.055456161499 2.5 38.511121749878 316.61598926838
53850	1380530 6376 10267 15649 140.75 188.5 192 3.61692070961 15.875 2178.7403140068 28078.522260481
53849	1386906 6755 10232 15649 140.5 188.5 193 238.30438232422 483.14999389648 85178.010559082 38567403.197572
53848	1393661 6731 10232 15649 140.5 188.5 193 184.17810058594 483.28811645508 77680.245727539 33049484.875276
vector 53960  IntersectionExampleScenario.node[59].veinsmobility  posx  ETV
vector 53961  IntersectionExampleScenario.node[59].veinsmobility  posy  ETV
53866	1400546 5924 10704 15691 143.75 189 182 0.973 11.990504229548 546.23557650711 2987.1019141757
53865	1406470 5976 10704 15691 143.75 189 182 -4.5 2.5 39.869146347046 296.82927844055
53864	1412446 6151 10666 15691 143.5 189 183 4.0545258522034 16.125 2272.6540055275 31177.828933734
53863	1418597 6440 10627 15691 143.25 189 184 483.14999389648 483.14999389648 88899.598876953 42951840.6548
53862	1425037 6415 10627 15691 143.25 189 184 169.95465087891 732.57150268555 80918.793182373 39969207.428771
vector 53962  IntersectionExampleScenario.node[59].veinsmobility  speed  ETV
vector 53963  IntersectionExampleScenario.node[59].veinsmobility  acceleration  ETV
vector 53964  IntersectionExampleScenario.node[59].veinsmobility  co2emission  ETV
53873	1431699 5888 11103 15893 146.5 191.25 180 0.973 11.90022389248 553.31013828687 3123.7090970609
53872	1437587 5913 11103 15893 146.5 191.25 180 -3.9208717346191 2.5000019073486 40.378400802612 305.32714148112
53871	1443500 6032 11068 15893 146.25 191.25 181 5.6500000953674 16 2288.7248315811 31055.700245171
53870	1449532 6359 11032 15893 146 191.25 182 483.14999389648 731.72039794922 95994.685974121 51608095.679114
53869	1455891 6356 11032 15893 146 191.25 182 162.84295654297 486.85000610352 71371.323577881 30093487.208029
vector 53967  IntersectionExampleScenario.node[60].veinsmobility  posx  ETV
vector 53968  IntersectionExampleScenario.node[60].veinsmobility  posy  ETV
vector 53974  IntersectionExampleScenario.node[61].veinsmobility  posx  ETV
vector 53975  IntersectionExampleScenario.node[61].veinsmobility  posy  ETV
vector 53969  IntersectionExampleScenario.node[60].veinsmobility  speed  ETV
vector 53970  IntersectionExampleScenario.node[60].veinsmobility  acceleration  ETV
vector 53971  IntersectionExampleScenario.node[60].veinsmobility  co2emission  ETV
vector 53976  IntersectionExampleScenario.node[61].veinsmobility  speed  ETV
vector 53977  IntersectionExampleScenario.node[61].veinsmobility  acceleration  ETV
vector 53978  IntersectionExampleScenario.node[61].veinsmobility  co2emission  ETV
53824	1463049 7870 9080 16215 132 195.25 254 0.973 11.648172402475 635.38481898826 3052.1351239204
53823	1470919 7371 9080 16215 132 195.25 254 -8.1649284362793 4 37.832105636597 519.71534768185
53822	1478290 7550 9045 16215 131.75 195.25 255 0 15.64999961853 2312.8405008316 32231.351259825
53821	1485840 8910 9010 16215 131.5 195.25 256 238.25756835938 812.91485595703 133772.61984253 74735187.29452
53820	1494750 8930 9010 16215 131.5 195.25 256 483.14999389648 483.14999389648 123686.3984375 59759082.650156
53887	1503680 6334 11218 16235 147.25 195.5 194 0.973 11.450879080643 558.33584761521 2804.9676810459
53886	1510014 5664 11218 16235 147.25 195.5 194 -6.9984560012817 4 37.492597579956 466.08322164982
53885	1515678 6183 11177 16235 147 195.5 195 0 15.375 2203.9428420067 30785.576233573
53884	1521861 6835 11138 16235 146.75 195.5 196 184.17810058594 486.85000610352 80579.79208374 35069682.630556
53883	1528696 6855 11138 16235 146.75 195.5 196 236.23193359375 486.85000610352 86867.053253174 39555453.168377
53838	1535551 7713 9778 16273 137.25 196 236 0.973 11.90022389248 612.43965824544 3105.150132772
53837	1543264 7677 9778 16273 137.25 196 236 -4.5 2.5 41.227170944214 435.6901765301
53836	1550941 7773 9744 16273 137 196 237 0 16.001445770264 2247.4878773587 32016.304033987
53835	1558714 8304 9709 16273 136.75 196 238 483.13439941406 796.00687408447 131634.09755707 74959180.240971
53834	1567018 8315 9709 16273 136.75 196 238 483.14999389648 732.98509216309 123029.28918457 64662251.164667
vector 53981  IntersectionExampleScenario.node[62].veinsmobility  posx  ETV
vector 53982  IntersectionExampleScenario.node[62].veinsmobility  posy  ETV
vector 53983  IntersectionExampleScenario.node[62].veinsmobility  speed  ETV
vector 53984  IntersectionExampleScenario.node[62].veinsmobility  acceleration  ETV
vector 53985  IntersectionExampleScenario.node[62].veinsmobility  co2emission  ETV
53901	1575734 5569 12577 16498 157.25 199 168 0.973 11.200708441096 504.13082913927 2743.6708545977
53900	1581303 5393 12577 16498 157.25 199 168 -2.1341400146484 2.5 35.455564498901 249.19517450661
53899	1586696 5691 12548 16498 157 199 169 5.6500000953674 15.02499961853 2209.0490751266 29702.929582607
53898	1592387 5933 12519 16498 156.75 199 170 238.21301269531 785.82187652588 88822.098625183 50670680.579899
53897	1598320 5949 12519 16498 156.75 199 170 483.14999389648 483.14999389648 82135.498962402 39683765.822369
vector 53988  IntersectionExampleScenario.node[63].veinsmobility  posx  ETV
vector 53989  IntersectionExampleScenario.node[63].veinsmobility  posy  ETV
vector 53990  IntersectionExampleScenario.node[63].veinsmobility  speed  ETV
vector 53991  IntersectionExampleScenario.node[63].veinsmobility  acceleration  ETV
vector 53992  IntersectionExampleScenario.node[63].veinsmobility  co2emission  ETV
vector 53995  IntersectionExampleScenario.node[64].veinsmobility  posx  ETV
vector 53996  IntersectionExampleScenario.node[64].veinsmobility  posy  ETV
vector 53997  IntersectionExampleScenario.node[64].veinsmobility  speed  ETV
vector 53998  IntersectionExampleScenario.node[64].veinsmobility  acceleration  ETV
vector 53999  IntersectionExampleScenario.node[64].veinsmobility  co2emission  ETV
vector 54002  IntersectionExampleScenario.node[65].veinsmobility  posx  ETV
vector 54003  IntersectionExampleScenario.node[65].veinsmobility  posy  ETV
vector 54004  IntersectionExampleScenario.node[65].veinsmobility  speed  ETV
vector 54005  IntersectionExampleScenario.node[65].veinsmobility  acceleration  ETV
vector 54006  IntersectionExampleScenario.node[65].veinsmobility  co2emission  ETV
53922	1605472 5268 13791 17093 168.25 206.5 154 0.973 11.648172402475 469.21496155858 2457.4558325946
53921	1610740 4837 13791 17093 168.25 206.5 154 -3.0418586730957 2.5 38.171613693237 190.18313269967
53920	1615577 5194 13762 17093 168 206.5 155 5.6500000953674 15.64999961853 2212.8071784973 32216.6123788
53919	1620771 5427 13735 17093 167.75 206.5 156 184.17810058594 732.17820739746 69909.006652832 35451839.889797
53918	1626198 5460 13735 17093 167.75 206.5 156 486.85000610352 486.85000610352 75948.600952148 36975576.837107
53880	1631658 7755 11218 17339 147.25 209.25 249 0.973 11.00486315618 584.56893952179 2568.7307136693
53879	1639413 7122 11218 17339 147.25 209.25 249 -6.9985504150391 4 33.927785873413 432.78296631276
53878	1646535 7435 11177 17339 147 209.25 250 0 14.75 2195.9709904194 29116.868279131
53877	1653970 8763 11138 17339 146.75 209.25 251 237.86633300781 486.85000610352 113249.86862183 52266420.933763
53876	1662733 8777 11138 17339 146.75 209.25 251 483.14999389648 785.82187652588 137412.86178589 77366886.163498
53894	1671510 7735 11259 17360 147.5 209.5 249 0.973 11.36141391502 637.13431173111 2941.8259921478
53893	1679245 7213 11259 17360 147.5 209.5 249 -4.5 2.5 39.699392318726 459.95659770013
53892	1686458 7451 11218 17360 147.25 209.5 250 0 15.606742858887 2283.7540878654 31554.139182087
53891	1693909 8775 11177 17360 147 209.5 251 486.85000610352 733.49194335938 130242.71516418 68641855.722056
53890	1702684 8699 11177 17360 147 209.5 251 486.85000610352 810.23281097412 140153.72507477 80759475.502647
53908	1711383 6473 12914 17465 160.25 210.75 203 0.973 12.099024792222 583.87829277947 3200.2466089482
53907	1717856 6661 12914 17465 160.25 210.75 203 -3.7684338092804 2.5000004768372 41.227170944214 353.75152236629
53906	1724517 6946 12885 17465 160 210.75 204 0 16.27499961853 2222.875103239 30658.447858226
53905	1731463 7176 12856 17465 159.75 210.75 205 486.85000610352 486.85000610352 99804.251251221 48589700.330813
53904	1738639 7149 12856 17465 159.75 210.75 205 235.47796630859 785.82187652588 107107.58164215 60012694.217021
53915	1745788 6152 13547 17668 166 213.25 190 0.973 11.648172402475 543.10635037978 2832.549763659
53914	1751940 6301 13547 17668 166 213.25 190 -2.8415031433105 2.5 38.511121749878 301.04259440794
53913	1758241 6504 13520 17668 165.75 213.25 191 3.4309196472168 15.64999961853 2220.2396390438 29167.372064083
53912	1764745 6720 13492 17668 165.5 213.25 192 486.85000610352 486.85000610352 93475.201171875 45508402.261055
53911	1771465 6705 13492 17668 165.5 213.25 192 235.85687255859 785.82187652588 100816.11067963 57121819.068242
53929	1778170 6429 13820 18007 168.5 218.75 202 0.973 12.099024792222 589.11457379842 3228.28953763
53928	1784599 6092 13820 18007 168.5 218.75 202 -7.8777370452881 4 40.038900375366 513.03967753048
53927	1790691 6286 13791 18007 168.25 218.75 203 0 16.27499961853 2205.5867056847 32071.417647521
53926	1796977 7140 13762 18007 168 218.75 204 483.14999389648 483.14999389648 98562.598754883 47620518.986843
53925	1804117 7113 13762 18007 168 218.75 204 184.17810058594 731.70051574707 92476.877410889 45966996.05375
vector 54009  IntersectionExampleScenario.node[66].veinsmobility  posx  ETV
vector 54010  IntersectionExampleScenario.node[66].veinsmobility  posy  ETV
vector 54011  IntersectionExampleScenario.node[66].veinsmobility  speed  ETV
vector 54012  IntersectionExampleScenario.node[66].veinsmobility  acceleration  ETV
vector 54013  IntersectionExampleScenario.node[66].veinsmobility  co2emission  ETV
vector 54016  IntersectionExampleScenario.node[67].veinsmobility  posx  ETV
vector 54017  IntersectionExampleScenario.node[67].veinsmobility  posy  ETV
vector 54018  IntersectionExampleScenario.node[67].veinsmobility  speed  ETV
vector 54019  IntersectionExampleScenario.node[67].veinsmobility  acceleration  ETV
vector 54020  IntersectionExampleScenario.node[67].veinsmobility  co2emission  ETV
53957	1812032 5342 15376 18360 185.25 224.75 159 0.97223939240464 11.810082123732 528.31412900692 3181.4979752338
53956	1817374 5181 15376 18360 185.25 224.75 159 -3.5717163085938 2.5 38.680875778198 321.17044865183
53955	1822555 5259 15355 18360 185 224.75 160 5.6500000953674 15.875 2179.7771577835 31075.518403965
53954	1827814 5625 15334 18360 184.75 224.75 161 238.033203125 483.14999389648 69721.141296387 31102138.937908
53953	1833439 5614 15334 18360 184.75 224.75 161 184.17810058594 483.14999389648 63968.305450439 27152548.851417
vector 54023  IntersectionExampleScenario.node[68].veinsmobility  posx  ETV
vector 54024  IntersectionExampleScenario.node[68].veinsmobility  posy  ETV
vector 54025  IntersectionExampleScenario.node[68].veinsmobility  speed  ETV
vector 54026  IntersectionExampleScenario.node[68].veinsmobility  acceleration  ETV
vector 54027  IntersectionExampleScenario.node[68].veinsmobility  co2emission  ETV
53964	1839454 5272 15737 18579 189.5 228.25 156 0.973 11.90022389248 506.22339060727 2834.1524443663
53963	1844726 5051 15737 18579 189.5 228.25 156 -3.416259765625 2.5 40.038900375366 247.22813920156
53962	1849777 5198 15714 18579 189.25 228.25 157 5.6500000953674 16 2233.1225423813 32819.707167826
53961	1854975 5521 15691 18579 189 228.25 158 483.14999389648 734.84384155273 84640.570800781 46296665.963257
53960	1860496 5494 15691 18579 189 228.25 158 179.81719970703 486.85000610352 62642.43057251 26659056.613378
vector 54030  IntersectionExampleScenario.node[69].veinsmobility  posx  ETV
vector 54031  IntersectionExampleScenario.node[69].veinsmobility  posy  ETV
vector 54032  IntersectionExampleScenario.node[69].veinsmobility  speed  ETV
vector 54033  IntersectionExampleScenario.node[69].veinsmobility  acceleration  ETV
vector 54034  IntersectionExampleScenario.node[69].veinsmobility  co2emission  ETV
vector 54037  IntersectionExampleScenario.node[70].veinsmobility  posx  ETV
vector 54038  IntersectionExampleScenario.node[70].veinsmobility  posy  ETV
53936	1866545 6957 14592 18705 176 230.5 219 0.973 11.450879080643 582.66084761521 2828.6359060459
53935	1873502 6188 14592 18705 176 230.5 219 -6.998438835144 4 37.492597579956 466.08309252326
53934	1879690 6709 14569 18705 175.75 230.5 220 0 15.375 2203.9427442551 30785.574977167
53933	1886399 7724 14545 18705 175.5 230.5 221 483.14999389648 785.82187652588 122000.20636749 69371348.191545
53932	1894123 7726 14545 18705 175.5 230.5 221 483.14999389648 733.76802062988 115331.69650269 61285617.637574
vector 54039  IntersectionExampleScenario.node[70].veinsmobility  speed  ETV
53943	1901927 6900 14688 18721 177 230.75 216 0.973 11.200708441096 567.85644376069 2685.8382284014
53942	1908827 6336 14688 18721 177 230.75 216 -8.817081451416 4 36.134572982788 469.56263670059
53941	1915163 6683 14663 18721 176.75 230.75 217 0 15.02499961853 2197.2257316113 30078.361975184
53940	1921846 7605 14638 18721 176.5 230.75 218 184.17810058594 486.85000610352 90795.510467529 39839453.912403
53939	1929451 7628 14638 18721 176.5 230.75 218 237.55419921875 486.85000610352 97476.371917725 44680797.266268
vector 54040  IntersectionExampleScenario.node[70].veinsmobility  acceleration  ETV
vector 54041  IntersectionExampleScenario.node[70].veinsmobility  co2emission  ETV
vector 54044  IntersectionExampleScenario.node[71].veinsmobility  posx  ETV
vector 54045  IntersectionExampleScenario.node[71].veinsmobility  posy  ETV
vector 54046  IntersectionExampleScenario.node[71].veinsmobility  speed  ETV
vector 54047  IntersectionExampleScenario.node[71].veinsmobility  acceleration  ETV
vector 54048  IntersectionExampleScenario.node[71].veinsmobility  co2emission  ETV
vector 54051  IntersectionExampleScenario.node[72].veinsmobility  posx  ETV
vector 54052  IntersectionExampleScenario.node[72].veinsmobility  posy  ETV
53971	1937803 5262 16110 18878 194 233.25 158 0.973 12.099024792222 554.89747944182 3388.6154272892
53970	1943065 4896 16110 18878 194 233.25 158 -3.2263298034668 2.5 41.396924972534 312.73354164049
53969	1947961 5276 16089 18878 193.75 233.25 159 5.6500000953674 16.27499961853 2206.0555639267 31835.71064151
53968	1953237 5588 16070 18878 193.5 233.25 160 483.12130737305 785.82187652588 91472.483390808 54032532.252505
53967	1958825 5592 16070 18878 193.5 233.25 160 483.14999389648 732.88301086426 85327.120193481 46434008.294865
vector 54053  IntersectionExampleScenario.node[72].veinsmobility  speed  ETV
vector 54054  IntersectionExampleScenario.node[72].veinsmobility  acceleration  ETV
vector 54055  IntersectionExampleScenario.node[72].veinsmobility  co2emission  ETV
vector 54058  IntersectionExampleScenario.node[73].veinsmobility  posx  ETV
vector 54059  IntersectionExampleScenario.node[73].veinsmobility  posy  ETV
vector 54060  IntersectionExampleScenario.node[73].veinsmobility  speed  ETV
vector 54061  IntersectionExampleScenario.node[73].veinsmobility  acceleration  ETV
vector 54062  IntersectionExampleScenario.node[73].veinsmobility  co2emission  ETV
vector 54065  IntersectionExampleScenario.node[74].veinsmobility  posx  ETV
vector 54066  IntersectionExampleScenario.node[74].veinsmobility  posy  ETV
vector 54067  IntersectionExampleScenario.node[74].veinsmobility  speed  ETV
vector 54068  IntersectionExampleScenario.node[74].veinsmobility  acceleration  ETV
vector 54069  IntersectionExampleScenario.node[74].veinsmobility  co2emission  ETV
53985	1965466 5732 16441 19378 198.25 240 168 0.973 10.916047529558 487.08409210202 2363.096828086
53984	1971198 5480 16441 19378 198.25 240 168 -3.4234466552734 2.5 34.77654838562 248.93376684434
53983	1976678 5602 16422 19378 198 240 169 5.6500000953674 14.625 2201.5685377121 29751.402921979
53982	1982280 5939 16403 19378 197.75 240 170 486.78665161133 790.18281555176 97536.184326172 57829175.004899
53981	1988219 5935 16403 19378 197.75 240 170 236.63037109375 483.14999389648 73449.990570068 32715531.77955
vector 54072  IntersectionExampleScenario.node[75].veinsmobility  posx  ETV
vector 54073  IntersectionExampleScenario.node[75].veinsmobility  posy  ETV
vector 54074  IntersectionExampleScenario.node[75].veinsmobility  speed  ETV
vector 54075  IntersectionExampleScenario.node[75].veinsmobility  acceleration  ETV
vector 54076  IntersectionExampleScenario.node[75].veinsmobility  co2emission  ETV
53950	1994555 7452 15296 19675 184.25 243.5 238 0.973 11.200708441096 600.1228249063 2774.8312633354
53949	2002007 6662 15296 19675 184.25 243.5 238 -7.3439340591431 4 37.32285118103 465.44334662735
53948	2008669 7145 15277 19675 184 243.5 239 0 15.033923149109 2211.3693749905 30905.360778708
53947	2015814 8400 15258 19675 183.75 243.5 240 486.85000610352 486.85000610352 116844.00146484 56885502.826318
53946	2024214 8381 15258 19675 183.75 243.5 240 236.58538818359 785.82187652588 123224.8380661 67492784.502819
53978	2032595 6362 16131 19717 194.25 244 200 0.973 12.099024792222 580.57515170221 3200.9778240999
53977	2038957 6487 16131 19717 194.25 244 200 -3.9635076522827 2.5 41.227170944214 360.4034362032
53976	2045444 6791 16110 19717 194 244 201 0 16.27499961853 2203.4701423645 30279.860949238
53975	2052235 7064 16089 19717 193.75 244 202 237.94641113281 486.85000610352 90365.910583496 41432088.141737
53974	2059299 7058 16089 19717 193.75 244 202 483.06958007812 785.82187652588 113092.36766815 65167908.82531
53992	2066357 5693 16787 19906 202.75 246.25 175 0.973 12.099024792222 553.18268968002 3178.5802018825
53991	2072050 5218 16787 19906 202.75 246.25 175 -2.2075157165527 2.5 41.396924972534 291.36517664246
53990	2077268 5857 16766 19906 202.5 246.25 176 5.0116786956787 16.27499961853 2211.784362793 30244.312389212
53989	2083125 6190 16745 19906 202.25 246.25 177 236.17852783203 486.85000610352 78097.429199219 35436705.050861
53988	2089315 6184 16745 19906 202.25 246.25 177 483.12902832031 785.82187652588 100726.1375351 59084671.235691
53999	2095499 5773 17005 20095 205.5 248.5 173 0.973 11.54047740176 517.6114107407 2737.0412019163
53998	2101272 5642 17005 20095 205.5 248.5 173 -4.5 2.5 37.15309715271 279.71194917274
53997	2106914 5852 16984 20095 205.25 248.5 174 5.6500000953674 15.5 2278.5200214386 31024.530173275
53996	2112766 6124 16963 20095 205 248.5 175 486.85000610352 486.85000610352 85198.751068115 41479012.477524
53995	2118890 6096 16963 20095 205 248.5 175 235.6103515625 800.04531860352 92523.280143738 53477337.737877
54013	2124986 5281 18076 20721 220 258.25 154 0.973 11.648172402475 472.37063277033 2468.6221642102
54012	2130267 4809 18076 20721 220 258.25 154 -3.3639030456543 2.5 38.511121749878 193.75141553485
54011	2135076 5190 18061 20721 219.75 258.25 155 5.6500000953674 15.64999961853 2221.424943924 32483.242225398
54010	2140266 5460 18046 20721 219.5 258.25 156 483.14999389648 483.14999389648 75371.399047852 36415690.989939
54009	2145726 5432 18046 20721 219.5 258.25 156 184.17810058594 734.3458404541 70055.718399048 35615242.966205
vector 54079  IntersectionExampleScenario.node[76].veinsmobility  posx  ETV
vector 54080  IntersectionExampleScenario.node[76].veinsmobility  posy  ETV
vector 54081  IntersectionExampleScenario.node[76].veinsmobility  speed  ETV
vector 54082  IntersectionExampleScenario.node[76].veinsmobility  acceleration  ETV
vector 54083  IntersectionExampleScenario.node[76].veinsmobility  co2emission  ETV
vector 54086  IntersectionExampleScenario.node[77].veinsmobility  posx  ETV
vector 54087  IntersectionExampleScenario.node[77].veinsmobility  posy  ETV
vector 54088  IntersectionExampleScenario.node[77].veinsmobility  speed  ETV
vector 54089  IntersectionExampleScenario.node[77].veinsmobility  acceleration  ETV
vector 54090  IntersectionExampleScenario.node[77].veinsmobility  co2emission  ETV
vector 54093  IntersectionExampleScenario.node[78].veinsmobility  posx  ETV
vector 54094  IntersectionExampleScenario.node[78].veinsmobility  posy  ETV
vector 54095  IntersectionExampleScenario.node[78].veinsmobility  speed  ETV
vector 54096  IntersectionExampleScenario.node[78].veinsmobility  acceleration  ETV
vector 54097  IntersectionExampleScenario.node[78].veinsmobility  co2emission  ETV
54006	2152361 7311 17093 21033 206.5 265 235 0.973 11.648172402475 617.10057437692 3024.6078104747
54005	2159672 6851 17093 21033 206.5 265 235 -9.2062244415283 4 39.869146347046 510.66638141487
54004	2166523 6975 17070 21033 206.25 265 236 0 15.668744087219 2203.8219542503 31794.730046624
54003	2173498 8285 17047 21033 206 265 237 483.14999389648 785.82187652588 129703.5290451 73024921.126495
54002	2181783 8289 17047 21033 206 265 237 483.14999389648 733.81913757324 122761.31828308 64678128.943826
54020	2190072 5940 18270 21165 223.25 268 180 0.97223939240464 11.810082123732 554.02578122113 3013.9900687256
54019	2196012 5659 18270 21165 223.25 268 180 -7.1630792617798 4 38.680875778198 495.7216628338
54018	2201671 5833 18255 21165 223 268 181 0 15.875 2181.7262473106 30833.852349905
54017	2207504 6338 18240 21165 222.75 268 182 184.17810058594 483.24322509766 73875.396331787 31823365.374187
54016	2213842 6361 18240 21165 222.75 268 182 486.85000610352 733.48071289062 96761.515792847 52415935.46539
54027	2220203 5804 18484 21264 226.75 270.25 175 0.973 11.648172402475 570.58800935551 3224.7259397076
54026	2226007 5809 18484 21264 226.75 270.25 175 -4.5 2.5 38.001859664917 408.82390139945
54025	2231816 6133 18467 21264 226.5 270.25 176 4.8206462860107 15.64999961853 2208.2058649063 29705.427618338
54024	2237949 6189 18450 21264 226.25 270.25 177 483.13513183594 785.82187652588 100341.8879776 58719209.058849
54023	2244138 6182 18450 21264 226.25 270.25 177 483.14999389648 733.52529907227 94063.329483032 50991101.965505
54041	2250320 5496 18736 21330 231 271.75 164 0.973 11.244629545994 514.62000457714 2918.3539461906
54040	2255816 5263 18736 21330 231 271.75 164 -3.2360725402832 2.5 35.795072555542 275.89267977694
54039	2261079 5492 18721 21330 230.75 271.75 165 5.6500000953674 15.08655166626 2210.2050504684 30368.731249006
54038	2266571 5784 18705 21330 230.5 271.75 166 184.17810058594 486.87835693359 66163.948425293 28186894.595469
54037	2272355 5799 18705 21330 230.5 271.75 166 235.81457519531 486.85000610352 71991.359344482 32229831.297469
vector 54100  IntersectionExampleScenario.node[79].veinsmobility  posx  ETV
vector 54101  IntersectionExampleScenario.node[79].veinsmobility  posy  ETV
54055	2278308 5430 18912 21400 233.75 273.5 160 0.973 11.200708441096 508.2858026567 2560.1611919801
54054	2283738 5400 18912 21400 233.75 273.5 160 -4.5 2.5 40.208654403687 230.17018003043
54053	2289138 5359 18895 21400 233.5 273.5 161 5.6500000953674 15.744192123413 2268.6708669662 33015.52684958
54052	2294497 5643 18878 21400 233.25 273.5 162 169.95465087891 486.85000610352 63629.875518799 26974370.895975
54051	2300140 5656 18878 21400 233.25 273.5 162 236.46331787109 486.85000610352 70644.329437256 31756536.029871
vector 54102  IntersectionExampleScenario.node[79].veinsmobility  speed  ETV
vector 54103  IntersectionExampleScenario.node[79].veinsmobility  acceleration  ETV
vector 54104  IntersectionExampleScenario.node[79].veinsmobility  co2emission  ETV
54062	2306043 5347 19120 21499 236.75 276 158 0.973 12.099024792222 516.49877293312 2878.2216179078
54061	2311390 5231 19120 21499 236.75 276 158 -4.0369071960449 2.5 41.396924972534 241.70052579532
54060	2316621 5279 19101 21499 236.5 276 159 5.6500000953674 16.27499961853 2291.1838607788 34161.979706194
54059	2321900 5590 19082 21499 236.25 276 160 164.29138183594 486.85000610352 62433.351715088 26403809.585317
54058	2327490 5584 19082 21499 236.25 276 160 236.2841796875 486.85000610352 69821.633636475 31406563.812063
vector 54107  IntersectionExampleScenario.node[80].veinsmobility  posx  ETV
vector 54108  IntersectionExampleScenario.node[80].veinsmobility  posy  ETV
vector 54109  IntersectionExampleScenario.node[80].veinsmobility  speed  ETV
vector 54110  IntersectionExampleScenario.node[80].veinsmobility  acceleration  ETV
vector 54111  IntersectionExampleScenario.node[80].veinsmobility  co2emission  ETV
54034	2333475 6326 18690 21601 230.25 278.5 194 0.973 11.450879080643 553.43975093754 2785.5537819631
54033	2339801 5861 18690 21601 230.25 278.5 194 -8.2099418640137 4 36.813589096069 483.06962067089
54032	2345662 6179 18675 21601 230 278.5 195 0 15.375 2194.1593661308 30391.90381451
54031	2351841 6850 18660 21601 229.75 278.5 196 238.42358398438 486.85000610352 86925.010894775 39590336.206396
54030	2358691 6852 18660 21601 229.75 278.5 196 483.14999389648 785.82187652588 109620.85349274 63254871.524591
54048	2365543 6257 18800 21634 232 279.25 190 0.973 11.810082123732 579.86343228086 3000.4697940755
54047	2371800 5809 18800 21634 232 279.25 190 -4.5 2.5 40.378400802612 486.53104947212
54046	2377609 6071 18783 21634 231.75 279.25 191 0 15.875 2257.5397540927 32248.530962936
54045	2383680 6714 18766 21634 231.5 279.25 192 486.85000610352 731.93559265137 101335.4418335 54440940.770475
54044	2390394 6698 18766 21634 231.5 279.25 192 486.85000610352 805.05782318115 109337.15106964 64413997.9931
vector 54114  IntersectionExampleScenario.node[81].veinsmobility  posx  ETV
vector 54115  IntersectionExampleScenario.node[81].veinsmobility  posy  ETV
vector 54116  IntersectionExampleScenario.node[81].veinsmobility  speed  ETV
vector 54117  IntersectionExampleScenario.node[81].veinsmobility  acceleration  ETV
vector 54118  IntersectionExampleScenario.node[81].veinsmobility  co2emission  ETV
vector 54121  IntersectionExampleScenario.node[82].veinsmobility  posx  ETV
vector 54122  IntersectionExampleScenario.node[82].veinsmobility  posy  ETV
vector 54123  IntersectionExampleScenario.node[82].veinsmobility  speed  ETV
vector 54124  IntersectionExampleScenario.node[82].veinsmobility  acceleration  ETV
vector 54125  IntersectionExampleScenario.node[82].veinsmobility  co2emission  ETV
vector 54128  IntersectionExampleScenario.node[83].veinsmobility  posx  ETV
vector 54129  IntersectionExampleScenario.node[83].veinsmobility  posy  ETV
vector 54130  IntersectionExampleScenario.node[83].veinsmobility  speed  ETV
vector 54131  IntersectionExampleScenario.node[83].veinsmobility  acceleration  ETV
vector 54132  IntersectionExampleScenario.node[83].veinsmobility  co2emission  ETV
54069	2398295 6359 19314 22125 239.25 288.75 199 0.973 12.099024792222 582.84151359831 3177.9271936163
54068	2404654 6006 19314 22125 239.25 288.75 199 -7.8777370452881 4 40.038900375366 507.630947468
54067	2410660 6167 19293 22125 239 288.75 200 0 16.27499961853 2168.8228039742 31233.113068193
54066	2416827 6965 19272 22125 238.75 288.75 201 239.04711914062 483.14999389648 89274.504882812 40616099.297526
54065	2423792 7014 19272 22125 238.75 288.75 201 184.17810058594 483.36395263672 83010.88381958 36181096.934836
54076	2430806 6242 19591 22180 242.5 290 191 0.973 12.099024792222 578.02062060674 3239.1895079815
54075	2437048 6305 19591 22180 242.5 290 191 -4.5 2.5000000223517 40.038900375366 447.39467967511
54074	2443353 6543 19569 22180 242.25 290 192 0 16.27499961853 2259.4222021662 32389.736516942
54073	2449896 6753 19546 22180 242 290 193 483.14999389648 483.14999389648 93247.948822021 45052745.904219
54072	2456649 6719 19546 22180 242 290 193 172.9296875 732.96383666992 86132.089691162 42750321.183744
vector 54135  IntersectionExampleScenario.node[84].veinsmobility  posx  ETV
vector 54136  IntersectionExampleScenario.node[84].veinsmobility  posy  ETV
vector 54137  IntersectionExampleScenario.node[84].veinsmobility  speed  ETV
vector 54138  IntersectionExampleScenario.node[84].veinsmobility  acceleration  ETV
vector 54139  IntersectionExampleScenario.node[84].veinsmobility  co2emission  ETV
vector 54142  IntersectionExampleScenario.node[85].veinsmobility  posx  ETV
vector 54143  IntersectionExampleScenario.node[85].veinsmobility  posy  ETV
vector 54144  IntersectionExampleScenario.node[85].veinsmobility  speed  ETV
vector 54145  IntersectionExampleScenario.node[85].veinsmobility  acceleration  ETV
vector 54146  IntersectionExampleScenario.node[85].veinsmobility  co2emission  ETV
vector 54149  IntersectionExampleScenario.node[86].veinsmobility  posx  ETV
vector 54150  IntersectionExampleScenario.node[86].veinsmobility  posy  ETV
vector 54151  IntersectionExampleScenario.node[86].veinsmobility  speed  ETV
vector 54152  IntersectionExampleScenario.node[86].veinsmobility  acceleration  ETV
vector 54153  IntersectionExampleScenario.node[86].veinsmobility  co2emission  ETV
vector 54156  IntersectionExampleScenario.node[87].veinsmobility  posx  ETV
vector 54157  IntersectionExampleScenario.node[87].veinsmobility  posy  ETV
vector 54158  IntersectionExampleScenario.node[87].veinsmobility  speed  ETV
vector 54159  IntersectionExampleScenario.node[87].veinsmobility  acceleration  ETV
vector 54160  IntersectionExampleScenario.node[87].veinsmobility  co2emission  ETV
54083	2464972 5500 20769 22762 259.25 299.75 163 0.97223939240464 11.810082123732 525.57186272175 2945.7253807548
54082	2470472 5213 20769 22762 259.25 299.75 163 -3.3043193817139 2.5 38.680875778198 339.71637383688
54081	2475685 5458 20756 22762 259 299.75 164 4.3557052612305 15.875 2176.9759793282 30762.182318993
54080	2481143 5748 20743 22762 258.75 299.75 165 184.17810058594 483.14999389648 65852.511810303 28037081.072568
54079	2486891 5767 20743 22762 258.75 299.75 165 486.85000610352 731.75045776367 88380.903091431 48257694.923261
54090	2492658 5325 20870 22780 261.25 300 156 0.973 11.648172402475 485.63747885777 2604.7356237725
54089	2497983 4947 20870 22780 261.25 300 156 -3.0159950256348 2.5 38.341367721558 214.62863302787
54088	2502930 5262 20857 22780 261 300 157 5.6500000953674 15.64999961853 2220.4287338257 32093.014104404
54087	2508192 5522 20844 22780 260.75 300 158 235.86975097656 785.82187652588 82302.231864929 47029473.018099
54086	2513714 5529 20844 22780 260.75 300 158 483.14999389648 483.14999389648 76337.699035645 36882558.823143
vector 54163  IntersectionExampleScenario.node[88].veinsmobility  posx  ETV
vector 54164  IntersectionExampleScenario.node[88].veinsmobility  posy  ETV
vector 54170  IntersectionExampleScenario.node[89].veinsmobility  posx  ETV
vector 54171  IntersectionExampleScenario.node[89].veinsmobility  posy  ETV
vector 54165  IntersectionExampleScenario.node[88].veinsmobility  speed  ETV
vector 54166  IntersectionExampleScenario.node[88].veinsmobility  acceleration  ETV
vector 54167  IntersectionExampleScenario.node[88].veinsmobility  co2emission  ETV
vector 54172  IntersectionExampleScenario.node[89].veinsmobility  speed  ETV
vector 54173  IntersectionExampleScenario.node[89].veinsmobility  acceleration  ETV
vector 54174  IntersectionExampleScenario.node[89].veinsmobility  co2emission  ETV
54097	2520045 5583 21033 23197 265 305.5 163 0.973 10.756497587458 449.42040595182 2033.7166967098
54096	2525628 5276 21033 23197 265 305.5 163 -3.2784385681152 2.5 34.097539901733 158.14973576536
54095	2530904 5522 21022 23197 264.75 305.5 164 5.6500000953674 14.39999961853 2214.4160585403 30328.826368697
54094	2536426 5735 21011 23197 264.5 305.5 165 184.17810058594 733.03843688965 74238.730743408 37763235.084384
54093	2542161 5775 21011 23197 264.5 305.5 165 486.85000610352 486.85000610352 80330.25100708 39108783.193094
vector 54177  IntersectionExampleScenario.node[90].veinsmobility  posx  ETV
vector 54178  IntersectionExampleScenario.node[90].veinsmobility  posy  ETV
vector 54179  IntersectionExampleScenario.node[90].veinsmobility  speed  ETV
vector 54180  IntersectionExampleScenario.node[90].veinsmobility  acceleration  ETV
vector 54181  IntersectionExampleScenario.node[90].veinsmobility  co2emission  ETV
54104	2548337 5102 21422 23643 274 311.25 150 0.973 12.353032912318 517.06817170307 3079.5515593405
54103	2553439 4646 21422 23643 274 311.25 150 -3.704906463623 2.5 42.415441513062 265.48081162651
54102	2558085 4974 21411 23643 273.75 311.25 151 5.6500000953674 16.625 2205.996758461 33444.098946792
54101	2563059 5285 21400 23643 273.5 311.25 152 184.17810058594 487.04721069336 60394.795043945 25717065.354403
54100	2568344 5318 21400 23643 273.5 311.25 152 236.93389892578 486.85000610352 66100.265380859 29647902.93365
[...]
vector 56963  IntersectionExampleScenario.node[488].veinsmobility  posx  ETV
vector 56964  IntersectionExampleScenario.node[488].veinsmobility  posy  ETV
vector 56965  IntersectionExampleScenario.node[488].veinsmobility  speed  ETV
vector 56966  IntersectionExampleScenario.node[488].veinsmobility  acceleration  ETV
vector 56967  IntersectionExampleScenario.node[488].veinsmobility  co2emission  ETV
vector 56970  IntersectionExampleScenario.node[489].veinsmobility  posx  ETV
vector 56971  IntersectionExampleScenario.node[489].veinsmobility  posy  ETV
vector 56977  IntersectionExampleScenario.node[490].veinsmobility  posx  ETV
vector 56978  IntersectionExampleScenario.node[490].veinsmobility  posy  ETV
vector 56972  IntersectionExampleScenario.node[489].veinsmobility  speed  ETV
vector 56973  IntersectionExampleScenario.node[489].veinsmobility  acceleration  ETV
vector 56974  IntersectionExampleScenario.node[489].veinsmobility  co2emission  ETV
vector 56979  IntersectionExampleScenario.node[490].veinsmobility  speed  ETV
vector 56980  IntersectionExampleScenario.node[490].veinsmobility  acceleration  ETV
vector 56981  IntersectionExampleScenario.node[490].veinsmobility  co2emission  ETV
vector 56984  IntersectionExampleScenario.node[491].veinsmobility  posx  ETV
vector 56985  IntersectionExampleScenario.node[491].veinsmobility  posy  ETV
vector 56986  IntersectionExampleScenario.node[491].veinsmobility  speed  ETV
vector 56987  IntersectionExampleScenario.node[491].veinsmobility  acceleration  ETV
vector 56988  IntersectionExampleScenario.node[491].veinsmobility  co2emission  ETV
56855	15995467 7495 130615 136664 1702.75 1758.75 225 0.973 11.90022389248 605.09489783304 3100.2706534711
56854	16002962 6945 130615 136664 1702.75 1758.75 225 -7.2641463279724 4 39.699392318726 485.24823969018
56853	16009907 7210 130586 136664 1702.5 1758.75 226 0 16 2188.7000375986 31472.402892334
56852	16017117 8391 130557 136664 1702.25 1758.75 227 483.14999389648 734.64868164062 117996.04223633 62425021.54001
56851	16025508 8372 130557 136664 1702.25 1758.75 227 184.17810058594 486.85000610352 95431.039123535 42134934.459647
56911	16033880 5861 132768 136860 1719.75 1761.5 168 0.973 12.099024792222 544.6605759286 3177.8252344878
56910	16039741 5664 132768 136860 1719.75 1761.5 168 -2.1758155822754 2.5 41.227170944214 291.27703584557
56909	16045405 5946 132737 136860 1719.5 1761.5 169 5.6446552276611 16.27499961853 2213.1415042877 31043.528827089
56908	16051351 6277 132704 136860 1719.25 1761.5 170 483.14999389648 733.89070129395 90235.445541382 48861606.351658
56907	16057628 6265 132704 136860 1719.25 1761.5 170 184.17810058594 486.85000610352 68139.832641602 29070398.695047
vector 56991  IntersectionExampleScenario.node[492].veinsmobility  posx  ETV
vector 56992  IntersectionExampleScenario.node[492].veinsmobility  posy  ETV
vector 56998  IntersectionExampleScenario.node[493].veinsmobility  posx  ETV
vector 56999  IntersectionExampleScenario.node[493].veinsmobility  posy  ETV
vector 56993  IntersectionExampleScenario.node[492].veinsmobility  speed  ETV
vector 57005  IntersectionExampleScenario.node[494].veinsmobility  posx  ETV
vector 57006  IntersectionExampleScenario.node[494].veinsmobility  posy  ETV
vector 56994  IntersectionExampleScenario.node[492].veinsmobility  acceleration  ETV
vector 56995  IntersectionExampleScenario.node[492].veinsmobility  co2emission  ETV
vector 57000  IntersectionExampleScenario.node[493].veinsmobility  speed  ETV
vector 57001  IntersectionExampleScenario.node[493].veinsmobility  acceleration  ETV
vector 57002  IntersectionExampleScenario.node[493].veinsmobility  co2emission  ETV
vector 57007  IntersectionExampleScenario.node[494].veinsmobility  speed  ETV
vector 57012  IntersectionExampleScenario.node[495].veinsmobility  posx  ETV
vector 57013  IntersectionExampleScenario.node[495].veinsmobility  posy  ETV
vector 57008  IntersectionExampleScenario.node[494].veinsmobility  acceleration  ETV
vector 57009  IntersectionExampleScenario.node[494].veinsmobility  co2emission  ETV
vector 57014  IntersectionExampleScenario.node[495].veinsmobility  speed  ETV
vector 57015  IntersectionExampleScenario.node[495].veinsmobility  acceleration  ETV
vector 57016  IntersectionExampleScenario.node[495].veinsmobility  co2emission  ETV
vector 57019  IntersectionExampleScenario.node[496].veinsmobility  posx  ETV
vector 57020  IntersectionExampleScenario.node[496].veinsmobility  posy  ETV
vector 57021  IntersectionExampleScenario.node[496].veinsmobility  speed  ETV
vector 57022  IntersectionExampleScenario.node[496].veinsmobility  acceleration  ETV
vector 57023  IntersectionExampleScenario.node[496].veinsmobility  co2emission  ETV
56932	16065923 6017 133215 137246 1723.5 1766 171 0.973 11.00486315618 504.37235793047 2718.9051968348
56931	16071940 5941 133215 137246 1723.5 1766 171 -2.9707145690918 2.5 34.437047958374 257.34534894987
56930	16077881 6087 133186 137246 1723.25 1766 172 5.6500000953674 14.75 2240.2718782425 29877.979324324
56929	16083968 6394 133157 137246 1723 1766 173 483.14999389648 733.64912414551 92568.995376587 50567415.730703
56928	16090362 6368 133157 137246 1723 1766 173 176.21716308594 486.85000610352 68398.332519531 29010076.914203
56869	16096730 8598 130889 137588 1705 1769.75 260 0.973 11.04845361717 725.99009174824 3603.4430698177
56868	16105328 7928 130889 137588 1705 1769.75 260 -34.604625701904 4 40.717908859253 1753.8248584632
56867	16113256 8220 130857 137588 1704.75 1769.75 261 0 15.865846633911 2298.9602632523 32354.289496363
56866	16121476 9665 130824 137588 1704.5 1769.75 262 161.1796875 731.86730957031 115300.14231873 55873146.98677
56865	16131141 9695 130824 137588 1704.5 1769.75 262 486.85000610352 486.85000610352 127554.70159912 62100007.252064
vector 57026  IntersectionExampleScenario.node[497].veinsmobility  posx  ETV
vector 57027  IntersectionExampleScenario.node[497].veinsmobility  posy  ETV
vector 57028  IntersectionExampleScenario.node[497].veinsmobility  speed  ETV
56890	16141071 7535 132061 137632 1714.25 1770.25 225 0.973 11.648172402475 599.30129011815 2987.4182477049
56889	16148606 6972 132061 137632 1714.25 1770.25 225 -8.6235389709473 4 38.850629806519 498.30482516561
56888	16155578 7246 132030 137632 1714 1770.25 226 0 15.64999961853 2205.8793079853 31417.474238424
56887	16162824 8388 131999 137632 1713.75 1770.25 227 483.14999389648 785.82187652588 124808.76554108 70646499.192002
56886	16171212 8392 131999 137632 1713.75 1770.25 227 483.14999389648 734.32060241699 118092.00941467 62531045.938509
vector 57029  IntersectionExampleScenario.node[497].veinsmobility  acceleration  ETV
vector 57030  IntersectionExampleScenario.node[497].veinsmobility  co2emission  ETV
56876	16179775 8654 131234 137770 1707.75 1771.75 257 0.973 11.450879080643 624.40777639842 2772.2929141397
56875	16188429 8325 131234 137770 1707.75 1771.75 257 -4.5 2.5 37.15309715271 470.09611583993
56874	16196754 8366 131201 137770 1707.5 1771.75 258 0 15.375 2301.292245104 31183.674881544
56873	16205120 9565 131168 137770 1707.25 1771.75 259 158.45544433594 486.86563110352 105940.10028076 46135631.89945
56872	16214685 9582 131168 137770 1707.25 1771.75 259 238.40460205078 486.85000610352 117638.95843506 54556897.241245
56918	16224267 7128 132863 137839 1720.5 1772.5 209 0.973 11.648172402475 567.19773334716 2873.4912388898
56917	16231395 7429 132863 137839 1720.5 1772.5 209 -3.8881766796112 2.5 38.511121749878 333.02116100416
56916	16238824 7565 132832 137839 1720.25 1772.5 210 0 15.64999961853 2200.6622908078 29638.656499286
56915	16246389 7785 132799 137839 1720 1772.5 211 482.9938659668 785.82187652588 117660.55036163 67523784.754579
56914	16254174 7798 132799 137839 1720 1772.5 211 483.14999389648 732.24362182617 110267.45739746 58678378.818353
vector 57033  IntersectionExampleScenario.node[498].veinsmobility  posx  ETV
vector 57034  IntersectionExampleScenario.node[498].veinsmobility  posy  ETV
vector 57035  IntersectionExampleScenario.node[498].veinsmobility  speed  ETV
vector 57036  IntersectionExampleScenario.node[498].veinsmobility  acceleration  ETV
vector 57037  IntersectionExampleScenario.node[498].veinsmobility  co2emission  ETV
56897	16262378 7977 132344 138052 1716.5 1774.75 234 0.973 11.200708441096 584.97913474845 2713.5755781373
56896	16270355 8291 132344 138052 1716.5 1774.75 234 -3.7372469902039 2.5000009536743 37.15309715271 330.27591824843
56895	16278646 8359 132311 138052 1716.25 1774.75 235 0 15.088981628418 2189.4592546728 28217.791752414
56894	16287005 8700 132278 138052 1716 1774.75 236 184.17810058594 483.31695556641 97649.877532959 42321550.241432
56893	16295705 8724 132278 138052 1716 1774.75 236 486.85000610352 734.19053649902 123313.83058167 65516509.887953
56904	16304429 8000 132506 138127 1717.75 1775.5 232 0.973 11.54047740176 608.7198148563 2901.5530752328
56903	16312429 8197 132506 138127 1717.75 1775.5 232 -4.5 2.5 38.680875778198 419.65428240764
56902	16320626 8372 132473 138127 1717.5 1775.5 233 0 15.5 2297.8498884067 30452.056982423
56901	16328998 8628 132440 138127 1717.25 1775.5 234 162.90466308594 732.01374816895 102487.05761719 49490568.354374
56900	16337626 8659 132440 138127 1717.25 1775.5 234 486.85000610352 486.85000610352 113922.90142822 55463365.25566
56925	16346285 7414 133041 138152 1722 1775.75 216 0.973 11.36141391502 572.59919860533 2803.729372319
56924	16353699 7562 133041 138152 1722 1775.75 216 -4.5 2.5000009536743 35.964826583862 368.69243962723
56923	16361261 7701 133010 138152 1721.75 1775.75 217 2.0697617530823 15.25 2269.5285360813 28557.018191856
56922	16368962 8040 132979 138152 1721.5 1775.75 218 486.7688293457 806.11563110352 124273.1230545 73044720.964701
56921	16377002 8058 132979 138152 1721.5 1775.75 218 235.66717529297 483.14999389648 96748.853881836 44012163.896603
56939	16385060 6063 134315 138352 1734.5 1777.75 174 0.973 11.648172402475 531.83248891034 2847.1130189064
56938	16391123 5981 134315 138352 1734.5 1777.75 174 -2.6348457336426 2.5 38.511121749878 266.80302423925
56937	16397104 6252 134292 138352 1734.25 1777.75 175 5.6500000953674 15.64999961853 2220.1714162827 29931.474977014
56936	16403356 6485 134269 138352 1734 1777.75 176 184.17810058594 734.29553222656 78462.269561768 39160218.109683
56935	16409841 6512 134269 138352 1734 1777.75 176 486.85000610352 486.85000610352 85685.601074219 41716035.405967
56946	16416353 6218 134526 138629 1736.75 1780.75 177 0.973 11.648172402475 539.83650953131 2937.5101704375
56945	16422571 6026 134526 138629 1736.75 1780.75 177 -4.5 2.5 38.511121749878 322.86710014593
56944	16428597 6262 134501 138629 1736.5 1780.75 178 5.6500000953674 15.64999961853 2256.2726888657 30372.320725539
56943	16434859 6601 134476 138629 1736.25 1780.75 179 167.29217529297 483.14999389648 70357.092315674 29673401.291337
56942	16441460 6620 134476 138629 1736.25 1780.75 179 486.85000610352 734.07717895508 95375.703826904 51791728.236428
vector 57040  IntersectionExampleScenario.node[499].veinsmobility  posx  ETV
vector 57041  IntersectionExampleScenario.node[499].veinsmobility  posy  ETV
vector 57042  IntersectionExampleScenario.node[499].veinsmobility  speed  ETV
vector 57043  IntersectionExampleScenario.node[499].veinsmobility  acceleration  ETV
vector 57044  IntersectionExampleScenario.node[499].veinsmobility  co2emission  ETV
56960	16448486 5646 135549 139020 1746.75 1785.5 156 0.973 11.648172402475 493.90664985485 2648.9493700567
56959	16454132 5024 135549 139020 1746.75 1785.5 156 -3.4680099487305 2.5 38.850629806519 242.66203863791
56958	16459156 5525 135524 139020 1746.5 1785.5 157 5.6500000953674 15.64999961853 2207.1573390961 31975.525449364
56957	16464681 5833 135499 139020 1746.25 1785.5 158 236.89532470703 486.85000610352 68582.60534668 30717610.839312
56956	16470514 5839 135499 139020 1746.25 1785.5 158 483.12203979492 785.82187652588 90390.113258362 53478129.701896
56953	16476353 7226 134881 139567 1740.25 1793.75 215 0.973 11.90022389248 595.36489783304 3090.8033634711
56952	16483579 6716 134881 139567 1740.25 1793.75 215 -7.2641463279724 4 39.699392318726 485.24823969018
56951	16490295 6979 134854 139567 1740 1793.75 216 0 16 2188.7000375986 31472.402892334
56950	16497274 8020 134826 139567 1739.75 1793.75 217 483.14999389648 734.64868164062 113164.54229736 60090682.373988
56949	16505294 8001 134826 139567 1739.75 1793.75 217 184.17810058594 486.85000610352 90715.0390625 39910868.802079
vector 57047  IntersectionExampleScenario.node[500].veinsmobility  posx  ETV
vector 57048  IntersectionExampleScenario.node[500].veinsmobility  posy  ETV
vector 57049  IntersectionExampleScenario.node[500].veinsmobility  speed  ETV
vector 57050  IntersectionExampleScenario.node[500].veinsmobility  acceleration  ETV
vector 57051  IntersectionExampleScenario.node[500].veinsmobility  co2emission  ETV
56974	16513701 5936 136426 139812 1756 1798 169 0.973 11.648172402475 553.54261663036 3197.3610876766
56973	16519637 5576 136426 139812 1756 1798 169 -3.1314430236816 2.5 38.341367721558 346.74583292647
56972	16525213 5969 136403 139812 1755.75 1798 170 5.6500000953674 15.64999961853 2187.8474040031 29791.342078919
56971	16531182 6305 136382 139812 1755.5 1798 171 235.97735595703 483.14999389648 74367.333221436 33298361.96414
56970	16537487 6292 136382 139812 1755.5 1798 171 184.17810058594 483.14999389648 68247.289398193 28991488.917882
56981	16543779 6143 136449 139906 1756.25 1799.75 175 0.973 11.464445045634 572.34808297862 3157.7449241227
56980	16549922 5886 136449 139906 1756.25 1799.75 175 -4.5 2.5 40.038900375366 383.07426560582
56979	16555808 6217 136426 139906 1756 1799.75 176 5.6500000953674 15.981971740723 2287.1055388451 31645.322571981
56978	16562025 6541 136403 139906 1755.75 1799.75 177 235.59423828125 483.14999389648 77454.530883789 34851500.52188
56977	16568566 6527 136403 139906 1755.75 1799.75 177 159.76721191406 483.14999389648 68851.262756348 28933046.999583
56967	16575093 6438 136076 139920 1752.25 1800 192 0.973 11.648172402475 550.54618308366 2836.4395541062
56966	16581531 6193 136076 139920 1752.25 1800 192 -8.8325653076172 4 39.869287490845 502.01233002171
56965	16587724 6313 136051 139920 1752 1800 193 0 15.848928451538 1889.606795311 26862.229212479
56964	16594037 7168 136026 139920 1751.75 1800 194 317.19891357422 785.82187652588 104906.75569916 59501118.339717
56963	16601205 7177 136026 139920 1751.75 1800 194 483.14999389648 483.14999389648 93731.098815918 45286179.820821
56988	16608382 5698 136580 139920 1757.75 1800 170 0.973 11.200708441096 470.28240939719 2382.2833547359
56987	16614080 6333 136580 139920 1757.75 1800 170 -2.4533081054688 2.5 35.795110702515 287.31281877502
56986	16620413 6228 136557 139920 1757.5 1800 171 0.52319025993347 15.02499961853 1736.6937970519 21930.923251512
56985	16626641 6331 136534 139920 1757.25 1800 172 356.12780761719 785.82187652588 96673.22492218 56609585.744647
56984	16632972 6364 136534 139920 1757.25 1800 172 483.14999389648 483.14999389648 83101.798950195 40150633.655574
56995	16639336 4851 136929 139920 1762.5 1800 151 0.973 11.200708441096 337.06864684463 1462.2127817701
56994	16644187 4451 136929 139920 1762.5 1800 151 -8.4870567321777 4 -1.1000003814697 381.38853871578
56993	16648638 4751 136910 139920 1762.25 1800 152 0 15.02499961853 1171.7679541111 15897.63522419
56992	16653389 5658 136893 139920 1762 1800 153 486.85000610352 488.3235168457 74491.447540283 36267818.831759
56991	16659047 5648 136893 139920 1762 1800 153 493.81311035156 785.82187652588 89247.568260193 53605251.943375
57002	16664695 5297 136950 139920 1762.75 1800 150 0.973 11.200708441096 450.51590018317 2442.5281382781
57001	16669992 5234 136950 139920 1762.75 1800 150 -4.5 2.5 35.795072555542 249.45687097835
57000	16675226 5277 136929 139920 1762.5 1800 151 5.6500000953674 15.02499961853 1948.188492775 26230.307398907
56999	16680503 5620 136910 139920 1762.25 1800 152 295.79016113281 483.14999389648 68441.530761719 31273189.675286
56998	16686123 5595 136910 139920 1762.25 1800 152 184.17810058594 483.17138671875 59161.886016846 24682371.057873
57009	16691718 5311 136971 139920 1763 1800 149 0.973 11.00486315618 454.59887565234 2362.2180553327
57008	16697029 5044 136971 139920 1763 1800 149 -3.2966594696045 2.5 34.097608566284 309.66662878803
57007	16702073 5344 136950 139920 1762.75 1800 150 3.9748725891113 14.75 1871.3259310722 24621.956769366
57006	16707417 5551 136929 139920 1762.5 1800 151 184.17810058594 487.06213378906 58567.666687012 24391162.278812
57005	16712968 5584 136929 139920 1762.5 1800 151 319.65075683594 486.85000610352 69431.640991211 32269442.788053
57016	16718552 5100 137017 139920 1763.5 1800 147 0.973 10.749099703592 320.41708399801 1259.0225953083
57015	16723652 5238 137017 139920 1763.5 1800 147 -4.5 2.5000002384186 -4.9748573303223 298.16527322218
57014	16728890 5441 136994 139920 1763.25 1800 148 0 14.389553070068 1228.3676055092 15902.768632735
57013	16734331 5511 136971 139920 1763 1800 149 486.85000610352 486.85000610352 72540.650909424 35316416.338006
57012	16739842 5493 136971 139920 1763 1800 149 502.06326293945 807.99687957764 90139.514144897 56211365.642703
57023	16745335 4546 137131 139920 1764.75 1800 142 0.973 11.200708441096 309.03574784809 1368.9901253309
57022	16749881 4585 137131 139920 1764.75 1800 142 -9.3928661346436 2.5 -22.60000038147 342.19034940158
57021	16754466 4614 137108 139920 1764.5 1800 143 0 15.02499961853 1218.5686440468 16346.599955267
57020	16759080 5328 137085 139920 1764.25 1800 144 483.14999389648 483.14999389648 69573.599121094 33614483.990713
57019	16764408 5282 137085 139920 1764.25 1800 144 166.078125 471.60000610352 53036.983886719 21192003.675969
57030	16769690 3796 137655 139920 1770.5 1800 119 0.973 10.756497587458 283.673498371 1291.3786598482
57029	16773486 4412 137655 139920 1770.5 1800 119 -3.7784848213196 2.5 -16.769833564758 204.55207567791
57028	16777898 4406 137632 139920 1770.25 1800 120 0 15.666260719299 1094.132579416 13775.736723003
57027	16782304 4475 137609 139920 1770 1800 121 486.85000610352 486.85000610352 58908.850738525 28679774.341602
57026	16786779 4460 137609 139920 1770 1800 121 512.29440307617 785.82187652588 74235.599029541 46608268.860314
57037	16791239 3645 138027 139920 1774.5 1800 103 0.973 11.200708441096 313.82868130713 1647.1594423335
57036	16794884 3350 138027 139920 1774.5 1800 103 -3.2952842712402 2.5 20.89999961853 215.31191113571
57035	16798234 3606 138002 139920 1774.25 1800 104 5.6500000953674 15.02499961853 1288.0583372116 16919.264570629
57034	16801840 3877 137977 139920 1774 1800 105 486.71420288086 785.82187652588 65337.892738342 41726991.51001
57033	16805717 3883 137977 139920 1774 1800 105 459.35394287109 483.14999389648 50574.652069092 24362124.736686
57044	16809600 2154 139020 139920 1785.5 1800 59 0.973 11.200708441096 208.44385870393 1224.5604231121
57043	16811754 2143 139020 139920 1785.5 1800 59 -0.5 2.5 35.455564498901 94.340745310536
57042	16813897 2207 138999 139920 1785.25 1800 60 5.6500000953674 15.02499961853 805.55556297302 11156.538495904
57041	16816104 2227 138978 139920 1785 1800 61 184.17810058594 380.71939086914 16696.073272705 4798156.7060815
57040	16818331 2255 138978 139920 1785 1800 61 486.85000610352 486.85000610352 29697.850372314 14458398.635023
57051	16820586 679 139662 139920 1795.5 1800 19 0.973 11.200708441096 127.29324547204 1058.8564945604
57050	16821265 541 139662 139920 1795.5 1800 19 -0.42623138427734 2.5 36.334516525269 94.123673948958
57049	16821806 731 139647 139920 1795.25 1800 20 5.6500000953674 15.02499961853 224.66917324066 2720.8629272823
57048	16822537 758 139632 139920 1795 1800 21 184.17810058594 235.42535400391 4298.108215332 885171.35839419
57047	16823295 775 139632 139920 1795 1800 21 486.85000610352 486.85000610352 10223.850128174 4977481.4973029
53543	16824070 633 0 139919 0 1800 31 0 23 415 6027
53544	16824703 644 0 139919 0 1800 31 0 165 2577 287373
