version 2
run nodebug-5-20200606-17:07:09-10964
attr configname nodebug
attr datetime 20200606-17:07:09
attr experiment nodebug
attr inifile omnetpp.ini
attr iterationvars ""
attr iterationvars2 $repetition=5
attr measurement ""
attr network "\"org.car2x.veins.modules.application.ExtTraCIScenarioManagerLaunchd.IntersectionExampleScenario\""
attr processid 10964
attr repetition 5
attr replication #5
attr resultdir results
attr runnumber 5
attr seedset 5
param **.coreDebug false
param **.debug false
param *.**.nic.mac1609_4.bitrate 18Mbps
param *.**.nic.mac1609_4.txPower 20mW
param *.**.nic.mac1609_4.useServiceChannel false
param *.**.nic.phy80211p.analogueModels "xmldoc(\"config.xml\")"
param *.**.nic.phy80211p.decider "xmldoc(\"config.xml\")"
param *.**.nic.phy80211p.sensitivity -89dBm
param *.**.nic.phy80211p.thermalNoise -110dBm
param *.**.nic.phy80211p.usePropagationDelay true
param *.**.nic.phy80211p.useThermalNoise true
param *.annotations.draw false
param *.connectionManager.alpha 2.0
param *.connectionManager.carrierFrequency "5.890e9 Hz"
param *.connectionManager.pMax 20mW
param *.connectionManager.sat -89dBm
param *.connectionManager.sendDirect true
param *.manager.autoShutdown true
param *.manager.host "\"localhost\""
param *.manager.launchConfig "xmldoc(\"paramics.launchd.xml\")"
param *.manager.margin 25
param *.manager.moduleDisplayString "\"\""
param *.manager.moduleName "\"node\""
param *.manager.moduleType "\"org.car2x.veins.nodes.Car\""
param *.manager.port 9999
param *.manager.updateInterval 250ms
param *.node[*0].veinsmobility.accidentCount 0
param *.node[*0].veinsmobility.accidentDuration 30s
param *.node[*0].veinsmobility.accidentStart 75s
param *.node[*].appl.LiderSelectZoneRadio 55.0
param *.node[*].appl.ShareDataZoneRadio 110.0
param *.node[*].appl.TiempoSemaforo 30.0
param *.node[*].appl.beaconInterval 1s
param *.node[*].appl.beaconPriority 3
param *.node[*].appl.dataOnSch false
param *.node[*].appl.dataPriority 2
param *.node[*].appl.debug false
param *.node[*].appl.headerLength "256 bit"
param *.node[*].appl.maxOffset 0.005s
param *.node[*].appl.sendBeacons false
param *.node[*].appl.sendData true
param *.node[*].applType "\"Dummy\""
param *.node[*].mobilityType "\"TraCIMobility\""
param *.node[*].mobilityType.debug true
param *.node[*].veinsmobility.x 0
param *.node[*].veinsmobility.y 0
param *.node[*].veinsmobility.z 1.895
param *.node[*].veinsmobilityType "\"org.car2x.veins.modules.mobility.traci.TraCIMobility\""
param *.node[*].veinsmobilityType.debug true
param *.playgroundSizeX 8500m
param *.playgroundSizeY 8500m
param *.playgroundSizeZ 50m
param *.world.use2D false
param *.world.useTorus false

scalar IntersectionExampleScenario.node[0].appl 	VehicleRemoved 	0
scalar IntersectionExampleScenario.node[0].appl 	ArrivedAtDest 	1
scalar IntersectionExampleScenario.node[0].appl 	IntersectionEnterTime 	1.25
scalar IntersectionExampleScenario.node[0].appl 	IntersectionExitTime 	25.364826363046
scalar IntersectionExampleScenario.node[0].appl 	NumberOfCollisions 	0
scalar IntersectionExampleScenario.node[0].nic.phy80211p 	busyTime 	0
scalar IntersectionExampleScenario.node[0].nic.mac1609_4 	ReceivedUnicastPackets 	0
scalar IntersectionExampleScenario.node[0].nic.mac1609_4 	ReceivedBroadcasts 	0
scalar IntersectionExampleScenario.node[0].nic.mac1609_4 	SentPackets 	0
scalar IntersectionExampleScenario.node[0].nic.mac1609_4 	SNIRLostPackets 	0
scalar IntersectionExampleScenario.node[0].nic.mac1609_4 	RXTXLostPackets 	0
scalar IntersectionExampleScenario.node[0].nic.mac1609_4 	TotalLostPackets 	0
scalar IntersectionExampleScenario.node[0].nic.mac1609_4 	DroppedPacketsInMac 	0
scalar IntersectionExampleScenario.node[0].nic.mac1609_4 	TooLittleTime 	0
scalar IntersectionExampleScenario.node[0].nic.mac1609_4 	TimesIntoBackoff 	0
scalar IntersectionExampleScenario.node[0].nic.mac1609_4 	SlotsBackoff 	0
scalar IntersectionExampleScenario.node[0].nic.mac1609_4 	NumInternalContention 	0
scalar IntersectionExampleScenario.node[0].nic.mac1609_4 	totalBusyTime 	0
scalar IntersectionExampleScenario.node[0].veinsmobility 	startTime 	1.25
scalar IntersectionExampleScenario.node[0].veinsmobility 	totalTime 	41.25
scalar IntersectionExampleScenario.node[0].veinsmobility 	stopTime 	42.75
scalar IntersectionExampleScenario.node[0].veinsmobility 	minSpeed 	5.6500000953674
scalar IntersectionExampleScenario.node[0].veinsmobility 	maxSpeed 	15.02499961853
scalar IntersectionExampleScenario.node[0].veinsmobility 	totalDistance 	543.40988503853
scalar IntersectionExampleScenario.node[0].veinsmobility 	totalCO2Emission 	122.29747972905
scalar IntersectionExampleScenario.node[6].appl 	VehicleRemoved 	0
scalar IntersectionExampleScenario.node[6].appl 	ArrivedAtDest 	1
scalar IntersectionExampleScenario.node[6].appl 	IntersectionEnterTime 	11.25
scalar IntersectionExampleScenario.node[6].appl 	IntersectionExitTime 	33.120491316164
scalar IntersectionExampleScenario.node[6].appl 	NumberOfCollisions 	0
scalar IntersectionExampleScenario.node[6].nic.phy80211p 	busyTime 	0
scalar IntersectionExampleScenario.node[6].nic.mac1609_4 	ReceivedUnicastPackets 	0
scalar IntersectionExampleScenario.node[6].nic.mac1609_4 	ReceivedBroadcasts 	0
scalar IntersectionExampleScenario.node[6].nic.mac1609_4 	SentPackets 	0
scalar IntersectionExampleScenario.node[6].nic.mac1609_4 	SNIRLostPackets 	0
scalar IntersectionExampleScenario.node[6].nic.mac1609_4 	RXTXLostPackets 	0
scalar IntersectionExampleScenario.node[6].nic.mac1609_4 	TotalLostPackets 	0
scalar IntersectionExampleScenario.node[6].nic.mac1609_4 	DroppedPacketsInMac 	0
scalar IntersectionExampleScenario.node[6].nic.mac1609_4 	TooLittleTime 	0
scalar IntersectionExampleScenario.node[6].nic.mac1609_4 	TimesIntoBackoff 	0
scalar IntersectionExampleScenario.node[6].nic.mac1609_4 	SlotsBackoff 	0
scalar IntersectionExampleScenario.node[6].nic.mac1609_4 	NumInternalContention 	0
scalar IntersectionExampleScenario.node[6].nic.mac1609_4 	totalBusyTime 	0
scalar IntersectionExampleScenario.node[6].veinsmobility 	startTime 	11.25
scalar IntersectionExampleScenario.node[6].veinsmobility 	totalTime 	38.75
scalar IntersectionExampleScenario.node[6].veinsmobility 	stopTime 	50.25
scalar IntersectionExampleScenario.node[6].veinsmobility 	minSpeed 	5.6500000953674
scalar IntersectionExampleScenario.node[6].veinsmobility 	maxSpeed 	15.02499961853
scalar IntersectionExampleScenario.node[6].veinsmobility 	totalDistance 	520.53000995482
scalar IntersectionExampleScenario.node[6].veinsmobility 	totalCO2Emission 	114.22293672998
scalar IntersectionExampleScenario.node[4].appl 	VehicleRemoved 	0
scalar IntersectionExampleScenario.node[4].appl 	ArrivedAtDest 	1
scalar IntersectionExampleScenario.node[4].appl 	IntersectionEnterTime 	9.5
scalar IntersectionExampleScenario.node[4].appl 	IntersectionExitTime 	35.322479726077
scalar IntersectionExampleScenario.node[4].appl 	NumberOfCollisions 	0
scalar IntersectionExampleScenario.node[4].nic.phy80211p 	busyTime 	0
scalar IntersectionExampleScenario.node[4].nic.mac1609_4 	ReceivedUnicastPackets 	0
scalar IntersectionExampleScenario.node[4].nic.mac1609_4 	ReceivedBroadcasts 	0
scalar IntersectionExampleScenario.node[4].nic.mac1609_4 	SentPackets 	0
scalar IntersectionExampleScenario.node[4].nic.mac1609_4 	SNIRLostPackets 	0
scalar IntersectionExampleScenario.node[4].nic.mac1609_4 	RXTXLostPackets 	0
scalar IntersectionExampleScenario.node[4].nic.mac1609_4 	TotalLostPackets 	0
scalar IntersectionExampleScenario.node[4].nic.mac1609_4 	DroppedPacketsInMac 	0
scalar IntersectionExampleScenario.node[4].nic.mac1609_4 	TooLittleTime 	0
scalar IntersectionExampleScenario.node[4].nic.mac1609_4 	TimesIntoBackoff 	0
scalar IntersectionExampleScenario.node[4].nic.mac1609_4 	SlotsBackoff 	0
scalar IntersectionExampleScenario.node[4].nic.mac1609_4 	NumInternalContention 	0
scalar IntersectionExampleScenario.node[4].nic.mac1609_4 	totalBusyTime 	0
scalar IntersectionExampleScenario.node[4].veinsmobility 	startTime 	9.5
scalar IntersectionExampleScenario.node[4].veinsmobility 	totalTime 	42.75
scalar IntersectionExampleScenario.node[4].veinsmobility 	stopTime 	52.5
scalar IntersectionExampleScenario.node[4].veinsmobility 	minSpeed 	5.4068503379822
scalar IntersectionExampleScenario.node[4].veinsmobility 	maxSpeed 	15.25
scalar IntersectionExampleScenario.node[4].veinsmobility 	totalDistance 	545.85512110399
scalar IntersectionExampleScenario.node[4].veinsmobility 	totalCO2Emission 	132.74599172992
scalar IntersectionExampleScenario.node[5].appl 	VehicleRemoved 	0
scalar IntersectionExampleScenario.node[5].appl 	ArrivedAtDest 	1
scalar IntersectionExampleScenario.node[5].appl 	IntersectionEnterTime 	10.25
scalar IntersectionExampleScenario.node[5].appl 	IntersectionExitTime 	36.781698525097
scalar IntersectionExampleScenario.node[5].appl 	NumberOfCollisions 	0
scalar IntersectionExampleScenario.node[5].nic.phy80211p 	busyTime 	0
scalar IntersectionExampleScenario.node[5].nic.mac1609_4 	ReceivedUnicastPackets 	0
scalar IntersectionExampleScenario.node[5].nic.mac1609_4 	ReceivedBroadcasts 	0
scalar IntersectionExampleScenario.node[5].nic.mac1609_4 	SentPackets 	0
scalar IntersectionExampleScenario.node[5].nic.mac1609_4 	SNIRLostPackets 	0
scalar IntersectionExampleScenario.node[5].nic.mac1609_4 	RXTXLostPackets 	0
scalar IntersectionExampleScenario.node[5].nic.mac1609_4 	TotalLostPackets 	0
scalar IntersectionExampleScenario.node[5].nic.mac1609_4 	DroppedPacketsInMac 	0
scalar IntersectionExampleScenario.node[5].nic.mac1609_4 	TooLittleTime 	0
scalar IntersectionExampleScenario.node[5].nic.mac1609_4 	TimesIntoBackoff 	0
scalar IntersectionExampleScenario.node[5].nic.mac1609_4 	SlotsBackoff 	0
scalar IntersectionExampleScenario.node[5].nic.mac1609_4 	NumInternalContention 	0
scalar IntersectionExampleScenario.node[5].nic.mac1609_4 	totalBusyTime 	0
scalar IntersectionExampleScenario.node[5].veinsmobility 	startTime 	10.25
scalar IntersectionExampleScenario.node[5].veinsmobility 	totalTime 	42.75
scalar IntersectionExampleScenario.node[5].veinsmobility 	stopTime 	53.25
scalar IntersectionExampleScenario.node[5].veinsmobility 	minSpeed 	5.6500000953674
scalar IntersectionExampleScenario.node[5].veinsmobility 	maxSpeed 	15.5
scalar IntersectionExampleScenario.node[5].veinsmobility 	totalDistance 	575.46061706543
scalar IntersectionExampleScenario.node[5].veinsmobility 	totalCO2Emission 	126.9863548604
scalar IntersectionExampleScenario.node[1].appl 	VehicleRemoved 	0
scalar IntersectionExampleScenario.node[1].appl 	ArrivedAtDest 	1
scalar IntersectionExampleScenario.node[1].appl 	IntersectionEnterTime 	3
scalar IntersectionExampleScenario.node[1].appl 	IntersectionExitTime 	38.564802248904
scalar IntersectionExampleScenario.node[1].appl 	NumberOfCollisions 	0
scalar IntersectionExampleScenario.node[1].nic.phy80211p 	busyTime 	0
scalar IntersectionExampleScenario.node[1].nic.mac1609_4 	ReceivedUnicastPackets 	0
scalar IntersectionExampleScenario.node[1].nic.mac1609_4 	ReceivedBroadcasts 	0
scalar IntersectionExampleScenario.node[1].nic.mac1609_4 	SentPackets 	0
scalar IntersectionExampleScenario.node[1].nic.mac1609_4 	SNIRLostPackets 	0
scalar IntersectionExampleScenario.node[1].nic.mac1609_4 	RXTXLostPackets 	0
scalar IntersectionExampleScenario.node[1].nic.mac1609_4 	TotalLostPackets 	0
scalar IntersectionExampleScenario.node[1].nic.mac1609_4 	DroppedPacketsInMac 	0
scalar IntersectionExampleScenario.node[1].nic.mac1609_4 	TooLittleTime 	0
scalar IntersectionExampleScenario.node[1].nic.mac1609_4 	TimesIntoBackoff 	0
scalar IntersectionExampleScenario.node[1].nic.mac1609_4 	SlotsBackoff 	0
scalar IntersectionExampleScenario.node[1].nic.mac1609_4 	NumInternalContention 	0
scalar IntersectionExampleScenario.node[1].nic.mac1609_4 	totalBusyTime 	0
scalar IntersectionExampleScenario.node[1].veinsmobility 	startTime 	3
scalar IntersectionExampleScenario.node[1].veinsmobility 	totalTime 	51.75
scalar IntersectionExampleScenario.node[1].veinsmobility 	stopTime 	55
scalar IntersectionExampleScenario.node[1].veinsmobility 	minSpeed 	0
scalar IntersectionExampleScenario.node[1].veinsmobility 	maxSpeed 	16.27499961853
scalar IntersectionExampleScenario.node[1].veinsmobility 	totalDistance 	542.43856717498
scalar IntersectionExampleScenario.node[1].veinsmobility 	totalCO2Emission 	147.41312839958
scalar IntersectionExampleScenario.node[2].appl 	VehicleRemoved 	0
scalar IntersectionExampleScenario.node[2].appl 	ArrivedAtDest 	1
scalar IntersectionExampleScenario.node[2].appl 	IntersectionEnterTime 	5.25
scalar IntersectionExampleScenario.node[2].appl 	IntersectionExitTime 	39.342305036727
scalar IntersectionExampleScenario.node[2].appl 	NumberOfCollisions 	0
scalar IntersectionExampleScenario.node[2].nic.phy80211p 	busyTime 	0
scalar IntersectionExampleScenario.node[2].nic.mac1609_4 	ReceivedUnicastPackets 	0
scalar IntersectionExampleScenario.node[2].nic.mac1609_4 	ReceivedBroadcasts 	0
scalar IntersectionExampleScenario.node[2].nic.mac1609_4 	SentPackets 	0
scalar IntersectionExampleScenario.node[2].nic.mac1609_4 	SNIRLostPackets 	0
scalar IntersectionExampleScenario.node[2].nic.mac1609_4 	RXTXLostPackets 	0
scalar IntersectionExampleScenario.node[2].nic.mac1609_4 	TotalLostPackets 	0
scalar IntersectionExampleScenario.node[2].nic.mac1609_4 	DroppedPacketsInMac 	0
scalar IntersectionExampleScenario.node[2].nic.mac1609_4 	TooLittleTime 	0
scalar IntersectionExampleScenario.node[2].nic.mac1609_4 	TimesIntoBackoff 	0
scalar IntersectionExampleScenario.node[2].nic.mac1609_4 	SlotsBackoff 	0
scalar IntersectionExampleScenario.node[2].nic.mac1609_4 	NumInternalContention 	0
scalar IntersectionExampleScenario.node[2].nic.mac1609_4 	totalBusyTime 	0
scalar IntersectionExampleScenario.node[2].veinsmobility 	startTime 	5.25
scalar IntersectionExampleScenario.node[2].veinsmobility 	totalTime 	49.75
scalar IntersectionExampleScenario.node[2].veinsmobility 	stopTime 	55.25
scalar IntersectionExampleScenario.node[2].veinsmobility 	minSpeed 	0
scalar IntersectionExampleScenario.node[2].veinsmobility 	maxSpeed 	15.682001113892
scalar IntersectionExampleScenario.node[2].veinsmobility 	totalDistance 	553.40933227539
scalar IntersectionExampleScenario.node[2].veinsmobility 	totalCO2Emission 	145.43885304247
scalar IntersectionExampleScenario.node[3].appl 	VehicleRemoved 	0
scalar IntersectionExampleScenario.node[3].appl 	ArrivedAtDest 	1
scalar IntersectionExampleScenario.node[3].appl 	IntersectionEnterTime 	8
scalar IntersectionExampleScenario.node[3].appl 	IntersectionExitTime 	40.784260808141
scalar IntersectionExampleScenario.node[3].appl 	NumberOfCollisions 	0
scalar IntersectionExampleScenario.node[3].nic.phy80211p 	busyTime 	0
scalar IntersectionExampleScenario.node[3].nic.mac1609_4 	ReceivedUnicastPackets 	0
scalar IntersectionExampleScenario.node[3].nic.mac1609_4 	ReceivedBroadcasts 	0
scalar IntersectionExampleScenario.node[3].nic.mac1609_4 	SentPackets 	0
scalar IntersectionExampleScenario.node[3].nic.mac1609_4 	SNIRLostPackets 	0
scalar IntersectionExampleScenario.node[3].nic.mac1609_4 	RXTXLostPackets 	0
scalar IntersectionExampleScenario.node[3].nic.mac1609_4 	TotalLostPackets 	0
scalar IntersectionExampleScenario.node[3].nic.mac1609_4 	DroppedPacketsInMac 	0
scalar IntersectionExampleScenario.node[3].nic.mac1609_4 	TooLittleTime 	0
scalar IntersectionExampleScenario.node[3].nic.mac1609_4 	TimesIntoBackoff 	0
scalar IntersectionExampleScenario.node[3].nic.mac1609_4 	SlotsBackoff 	0
scalar IntersectionExampleScenario.node[3].nic.mac1609_4 	NumInternalContention 	0
scalar IntersectionExampleScenario.node[3].nic.mac1609_4 	totalBusyTime 	0
scalar IntersectionExampleScenario.node[3].veinsmobility 	startTime 	8
scalar IntersectionExampleScenario.node[3].veinsmobility 	totalTime 	48.5
scalar IntersectionExampleScenario.node[3].veinsmobility 	stopTime 	56.75
scalar IntersectionExampleScenario.node[3].veinsmobility 	minSpeed 	0
scalar IntersectionExampleScenario.node[3].veinsmobility 	maxSpeed 	15.853979110718
scalar IntersectionExampleScenario.node[3].veinsmobility 	totalDistance 	562.40119642661
scalar IntersectionExampleScenario.node[3].veinsmobility 	totalCO2Emission 	144.62046949991
scalar IntersectionExampleScenario.node[8].appl 	VehicleRemoved 	0
scalar IntersectionExampleScenario.node[8].appl 	ArrivedAtDest 	1
scalar IntersectionExampleScenario.node[8].appl 	IntersectionEnterTime 	16.5
scalar IntersectionExampleScenario.node[8].appl 	IntersectionExitTime 	43.072207857796
scalar IntersectionExampleScenario.node[8].appl 	NumberOfCollisions 	0
scalar IntersectionExampleScenario.node[8].nic.phy80211p 	busyTime 	0
scalar IntersectionExampleScenario.node[8].nic.mac1609_4 	ReceivedUnicastPackets 	0
scalar IntersectionExampleScenario.node[8].nic.mac1609_4 	ReceivedBroadcasts 	0
scalar IntersectionExampleScenario.node[8].nic.mac1609_4 	SentPackets 	0
scalar IntersectionExampleScenario.node[8].nic.mac1609_4 	SNIRLostPackets 	0
scalar IntersectionExampleScenario.node[8].nic.mac1609_4 	RXTXLostPackets 	0
scalar IntersectionExampleScenario.node[8].nic.mac1609_4 	TotalLostPackets 	0
scalar IntersectionExampleScenario.node[8].nic.mac1609_4 	DroppedPacketsInMac 	0
scalar IntersectionExampleScenario.node[8].nic.mac1609_4 	TooLittleTime 	0
scalar IntersectionExampleScenario.node[8].nic.mac1609_4 	TimesIntoBackoff 	0
scalar IntersectionExampleScenario.node[8].nic.mac1609_4 	SlotsBackoff 	0
scalar IntersectionExampleScenario.node[8].nic.mac1609_4 	NumInternalContention 	0
scalar IntersectionExampleScenario.node[8].nic.mac1609_4 	totalBusyTime 	0
scalar IntersectionExampleScenario.node[8].veinsmobility 	startTime 	16.5
scalar IntersectionExampleScenario.node[8].veinsmobility 	totalTime 	44.25
scalar IntersectionExampleScenario.node[8].veinsmobility 	stopTime 	61
scalar IntersectionExampleScenario.node[8].veinsmobility 	minSpeed 	5.6500000953674
scalar IntersectionExampleScenario.node[8].veinsmobility 	maxSpeed 	14.625
scalar IntersectionExampleScenario.node[8].veinsmobility 	totalDistance 	546.34915175963
scalar IntersectionExampleScenario.node[8].veinsmobility 	totalCO2Emission 	134.04427660008
scalar IntersectionExampleScenario.node[10].appl 	VehicleRemoved 	0
scalar IntersectionExampleScenario.node[10].appl 	ArrivedAtDest 	1
scalar IntersectionExampleScenario.node[10].appl 	IntersectionEnterTime 	22
scalar IntersectionExampleScenario.node[10].appl 	IntersectionExitTime 	47.024970675498
scalar IntersectionExampleScenario.node[10].appl 	NumberOfCollisions 	0
scalar IntersectionExampleScenario.node[10].nic.phy80211p 	busyTime 	0
scalar IntersectionExampleScenario.node[10].nic.mac1609_4 	ReceivedUnicastPackets 	0
scalar IntersectionExampleScenario.node[10].nic.mac1609_4 	ReceivedBroadcasts 	0
scalar IntersectionExampleScenario.node[10].nic.mac1609_4 	SentPackets 	0
scalar IntersectionExampleScenario.node[10].nic.mac1609_4 	SNIRLostPackets 	0
scalar IntersectionExampleScenario.node[10].nic.mac1609_4 	RXTXLostPackets 	0
scalar IntersectionExampleScenario.node[10].nic.mac1609_4 	TotalLostPackets 	0
scalar IntersectionExampleScenario.node[10].nic.mac1609_4 	DroppedPacketsInMac 	0
scalar IntersectionExampleScenario.node[10].nic.mac1609_4 	TooLittleTime 	0
scalar IntersectionExampleScenario.node[10].nic.mac1609_4 	TimesIntoBackoff 	0
scalar IntersectionExampleScenario.node[10].nic.mac1609_4 	SlotsBackoff 	0
scalar IntersectionExampleScenario.node[10].nic.mac1609_4 	NumInternalContention 	0
scalar IntersectionExampleScenario.node[10].nic.mac1609_4 	totalBusyTime 	0
scalar IntersectionExampleScenario.node[10].veinsmobility 	startTime 	22
scalar IntersectionExampleScenario.node[10].veinsmobility 	totalTime 	40.5
scalar IntersectionExampleScenario.node[10].veinsmobility 	stopTime 	62.75
scalar IntersectionExampleScenario.node[10].veinsmobility 	minSpeed 	5.6500000953674
scalar IntersectionExampleScenario.node[10].veinsmobility 	maxSpeed 	16.125
scalar IntersectionExampleScenario.node[10].veinsmobility 	totalDistance 	565.94021606445
scalar IntersectionExampleScenario.node[10].veinsmobility 	totalCO2Emission 	122.26694020829
scalar IntersectionExampleScenario.node[9].appl 	VehicleRemoved 	0
scalar IntersectionExampleScenario.node[9].appl 	ArrivedAtDest 	1
scalar IntersectionExampleScenario.node[9].appl 	IntersectionEnterTime 	17
scalar IntersectionExampleScenario.node[9].appl 	IntersectionExitTime 	45.623203050432
scalar IntersectionExampleScenario.node[9].appl 	NumberOfCollisions 	0
scalar IntersectionExampleScenario.node[9].nic.phy80211p 	busyTime 	0
scalar IntersectionExampleScenario.node[9].nic.mac1609_4 	ReceivedUnicastPackets 	0
scalar IntersectionExampleScenario.node[9].nic.mac1609_4 	ReceivedBroadcasts 	0
scalar IntersectionExampleScenario.node[9].nic.mac1609_4 	SentPackets 	0
scalar IntersectionExampleScenario.node[9].nic.mac1609_4 	SNIRLostPackets 	0
scalar IntersectionExampleScenario.node[9].nic.mac1609_4 	RXTXLostPackets 	0
scalar IntersectionExampleScenario.node[9].nic.mac1609_4 	TotalLostPackets 	0
scalar IntersectionExampleScenario.node[9].nic.mac1609_4 	DroppedPacketsInMac 	0
scalar IntersectionExampleScenario.node[9].nic.mac1609_4 	TooLittleTime 	0
scalar IntersectionExampleScenario.node[9].nic.mac1609_4 	TimesIntoBackoff 	0
scalar IntersectionExampleScenario.node[9].nic.mac1609_4 	SlotsBackoff 	0
scalar IntersectionExampleScenario.node[9].nic.mac1609_4 	NumInternalContention 	0
scalar IntersectionExampleScenario.node[9].nic.mac1609_4 	totalBusyTime 	0
scalar IntersectionExampleScenario.node[9].veinsmobility 	startTime 	17
scalar IntersectionExampleScenario.node[9].veinsmobility 	totalTime 	45.75
scalar IntersectionExampleScenario.node[9].veinsmobility 	stopTime 	63
scalar IntersectionExampleScenario.node[9].veinsmobility 	minSpeed 	5.6500000953674
scalar IntersectionExampleScenario.node[9].veinsmobility 	maxSpeed 	14.75
scalar IntersectionExampleScenario.node[9].veinsmobility 	totalDistance 	574.51848670282
scalar IntersectionExampleScenario.node[9].veinsmobility 	totalCO2Emission 	131.54007814446
scalar IntersectionExampleScenario.node[7].appl 	VehicleRemoved 	0
scalar IntersectionExampleScenario.node[7].appl 	ArrivedAtDest 	1
scalar IntersectionExampleScenario.node[7].appl 	IntersectionEnterTime 	13
scalar IntersectionExampleScenario.node[7].appl 	IntersectionExitTime 	52.275569443213
scalar IntersectionExampleScenario.node[7].appl 	NumberOfCollisions 	0
scalar IntersectionExampleScenario.node[7].nic.phy80211p 	busyTime 	0
scalar IntersectionExampleScenario.node[7].nic.mac1609_4 	ReceivedUnicastPackets 	0
scalar IntersectionExampleScenario.node[7].nic.mac1609_4 	ReceivedBroadcasts 	0
scalar IntersectionExampleScenario.node[7].nic.mac1609_4 	SentPackets 	0
scalar IntersectionExampleScenario.node[7].nic.mac1609_4 	SNIRLostPackets 	0
scalar IntersectionExampleScenario.node[7].nic.mac1609_4 	RXTXLostPackets 	0
scalar IntersectionExampleScenario.node[7].nic.mac1609_4 	TotalLostPackets 	0
scalar IntersectionExampleScenario.node[7].nic.mac1609_4 	DroppedPacketsInMac 	0
scalar IntersectionExampleScenario.node[7].nic.mac1609_4 	TooLittleTime 	0
scalar IntersectionExampleScenario.node[7].nic.mac1609_4 	TimesIntoBackoff 	0
scalar IntersectionExampleScenario.node[7].nic.mac1609_4 	SlotsBackoff 	0
scalar IntersectionExampleScenario.node[7].nic.mac1609_4 	NumInternalContention 	0
scalar IntersectionExampleScenario.node[7].nic.mac1609_4 	totalBusyTime 	0
scalar IntersectionExampleScenario.node[7].veinsmobility 	startTime 	13
scalar IntersectionExampleScenario.node[7].veinsmobility 	totalTime 	56
scalar IntersectionExampleScenario.node[7].veinsmobility 	stopTime 	69.25
scalar IntersectionExampleScenario.node[7].veinsmobility 	minSpeed 	0
scalar IntersectionExampleScenario.node[7].veinsmobility 	maxSpeed 	15.02499961853
scalar IntersectionExampleScenario.node[7].veinsmobility 	totalDistance 	551.50508226504
scalar IntersectionExampleScenario.node[7].veinsmobility 	totalCO2Emission 	143.45811682839
scalar IntersectionExampleScenario.node[11].appl 	VehicleRemoved 	0
scalar IntersectionExampleScenario.node[11].appl 	ArrivedAtDest 	1
scalar IntersectionExampleScenario.node[11].appl 	IntersectionEnterTime 	24.75
scalar IntersectionExampleScenario.node[11].appl 	IntersectionExitTime 	53.758063362155
scalar IntersectionExampleScenario.node[11].appl 	NumberOfCollisions 	0
scalar IntersectionExampleScenario.node[11].nic.phy80211p 	busyTime 	0
scalar IntersectionExampleScenario.node[11].nic.mac1609_4 	ReceivedUnicastPackets 	0
scalar IntersectionExampleScenario.node[11].nic.mac1609_4 	ReceivedBroadcasts 	0
scalar IntersectionExampleScenario.node[11].nic.mac1609_4 	SentPackets 	0
scalar IntersectionExampleScenario.node[11].nic.mac1609_4 	SNIRLostPackets 	0
scalar IntersectionExampleScenario.node[11].nic.mac1609_4 	RXTXLostPackets 	0
scalar IntersectionExampleScenario.node[11].nic.mac1609_4 	TotalLostPackets 	0
scalar IntersectionExampleScenario.node[11].nic.mac1609_4 	DroppedPacketsInMac 	0
scalar IntersectionExampleScenario.node[11].nic.mac1609_4 	TooLittleTime 	0
scalar IntersectionExampleScenario.node[11].nic.mac1609_4 	TimesIntoBackoff 	0
scalar IntersectionExampleScenario.node[11].nic.mac1609_4 	SlotsBackoff 	0
scalar IntersectionExampleScenario.node[11].nic.mac1609_4 	NumInternalContention 	0
scalar IntersectionExampleScenario.node[11].nic.mac1609_4 	totalBusyTime 	0
scalar IntersectionExampleScenario.node[11].veinsmobility 	startTime 	24.75
scalar IntersectionExampleScenario.node[11].veinsmobility 	totalTime 	45
scalar IntersectionExampleScenario.node[11].veinsmobility 	stopTime 	70
scalar IntersectionExampleScenario.node[11].veinsmobility 	minSpeed 	3.3007092475891
scalar IntersectionExampleScenario.node[11].veinsmobility 	maxSpeed 	15.64999961853
scalar IntersectionExampleScenario.node[11].veinsmobility 	totalDistance 	554.45890045166
scalar IntersectionExampleScenario.node[11].veinsmobility 	totalCO2Emission 	134.24067514509
scalar IntersectionExampleScenario.node[12].appl 	VehicleRemoved 	0
scalar IntersectionExampleScenario.node[12].appl 	ArrivedAtDest 	1
scalar IntersectionExampleScenario.node[12].appl 	IntersectionEnterTime 	26.5
scalar IntersectionExampleScenario.node[12].appl 	IntersectionExitTime 	62.524434369436
scalar IntersectionExampleScenario.node[12].appl 	NumberOfCollisions 	0
scalar IntersectionExampleScenario.node[12].nic.phy80211p 	busyTime 	0
scalar IntersectionExampleScenario.node[12].nic.mac1609_4 	ReceivedUnicastPackets 	0
scalar IntersectionExampleScenario.node[12].nic.mac1609_4 	ReceivedBroadcasts 	0
scalar IntersectionExampleScenario.node[12].nic.mac1609_4 	SentPackets 	0
scalar IntersectionExampleScenario.node[12].nic.mac1609_4 	SNIRLostPackets 	0
scalar IntersectionExampleScenario.node[12].nic.mac1609_4 	RXTXLostPackets 	0
scalar IntersectionExampleScenario.node[12].nic.mac1609_4 	TotalLostPackets 	0
scalar IntersectionExampleScenario.node[12].nic.mac1609_4 	DroppedPacketsInMac 	0
scalar IntersectionExampleScenario.node[12].nic.mac1609_4 	TooLittleTime 	0
scalar IntersectionExampleScenario.node[12].nic.mac1609_4 	TimesIntoBackoff 	0
scalar IntersectionExampleScenario.node[12].nic.mac1609_4 	SlotsBackoff 	0
scalar IntersectionExampleScenario.node[12].nic.mac1609_4 	NumInternalContention 	0
scalar IntersectionExampleScenario.node[12].nic.mac1609_4 	totalBusyTime 	0
scalar IntersectionExampleScenario.node[12].veinsmobility 	startTime 	26.5
scalar IntersectionExampleScenario.node[12].veinsmobility 	totalTime 	53.25
scalar IntersectionExampleScenario.node[12].veinsmobility 	stopTime 	80
scalar IntersectionExampleScenario.node[12].veinsmobility 	minSpeed 	0
scalar IntersectionExampleScenario.node[12].veinsmobility 	maxSpeed 	15.02499961853
scalar IntersectionExampleScenario.node[12].veinsmobility 	totalDistance 	543.13829709441
scalar IntersectionExampleScenario.node[12].veinsmobility 	totalCO2Emission 	140.06536469783
scalar IntersectionExampleScenario.node[17].appl 	VehicleRemoved 	0
scalar IntersectionExampleScenario.node[17].appl 	ArrivedAtDest 	1
scalar IntersectionExampleScenario.node[17].appl 	IntersectionEnterTime 	45.25
scalar IntersectionExampleScenario.node[17].appl 	IntersectionExitTime 	69.104476770823
scalar IntersectionExampleScenario.node[17].appl 	NumberOfCollisions 	0
scalar IntersectionExampleScenario.node[17].nic.phy80211p 	busyTime 	0
scalar IntersectionExampleScenario.node[17].nic.mac1609_4 	ReceivedUnicastPackets 	0
scalar IntersectionExampleScenario.node[17].nic.mac1609_4 	ReceivedBroadcasts 	0
scalar IntersectionExampleScenario.node[17].nic.mac1609_4 	SentPackets 	0
scalar IntersectionExampleScenario.node[17].nic.mac1609_4 	SNIRLostPackets 	0
scalar IntersectionExampleScenario.node[17].nic.mac1609_4 	RXTXLostPackets 	0
scalar IntersectionExampleScenario.node[17].nic.mac1609_4 	TotalLostPackets 	0
scalar IntersectionExampleScenario.node[17].nic.mac1609_4 	DroppedPacketsInMac 	0
scalar IntersectionExampleScenario.node[17].nic.mac1609_4 	TooLittleTime 	0
scalar IntersectionExampleScenario.node[17].nic.mac1609_4 	TimesIntoBackoff 	0
scalar IntersectionExampleScenario.node[17].nic.mac1609_4 	SlotsBackoff 	0
scalar IntersectionExampleScenario.node[17].nic.mac1609_4 	NumInternalContention 	0
scalar IntersectionExampleScenario.node[17].nic.mac1609_4 	totalBusyTime 	0
scalar IntersectionExampleScenario.node[17].veinsmobility 	startTime 	45.25
scalar IntersectionExampleScenario.node[17].veinsmobility 	totalTime 	41
scalar IntersectionExampleScenario.node[17].veinsmobility 	stopTime 	86.5
scalar IntersectionExampleScenario.node[17].veinsmobility 	minSpeed 	5.6500000953674
scalar IntersectionExampleScenario.node[17].veinsmobility 	maxSpeed 	15.02499961853
scalar IntersectionExampleScenario.node[17].veinsmobility 	totalDistance 	546.08208531948
scalar IntersectionExampleScenario.node[17].veinsmobility 	totalCO2Emission 	123.82659017598
scalar IntersectionExampleScenario.node[13].appl 	VehicleRemoved 	0
scalar IntersectionExampleScenario.node[13].appl 	ArrivedAtDest 	1
scalar IntersectionExampleScenario.node[13].appl 	IntersectionEnterTime 	31.25
scalar IntersectionExampleScenario.node[13].appl 	IntersectionExitTime 	73.559289571043
scalar IntersectionExampleScenario.node[13].appl 	NumberOfCollisions 	0
scalar IntersectionExampleScenario.node[13].nic.phy80211p 	busyTime 	0
scalar IntersectionExampleScenario.node[13].nic.mac1609_4 	ReceivedUnicastPackets 	0
scalar IntersectionExampleScenario.node[13].nic.mac1609_4 	ReceivedBroadcasts 	0
scalar IntersectionExampleScenario.node[13].nic.mac1609_4 	SentPackets 	0
scalar IntersectionExampleScenario.node[13].nic.mac1609_4 	SNIRLostPackets 	0
scalar IntersectionExampleScenario.node[13].nic.mac1609_4 	RXTXLostPackets 	0
scalar IntersectionExampleScenario.node[13].nic.mac1609_4 	TotalLostPackets 	0
scalar IntersectionExampleScenario.node[13].nic.mac1609_4 	DroppedPacketsInMac 	0
scalar IntersectionExampleScenario.node[13].nic.mac1609_4 	TooLittleTime 	0
scalar IntersectionExampleScenario.node[13].nic.mac1609_4 	TimesIntoBackoff 	0
scalar IntersectionExampleScenario.node[13].nic.mac1609_4 	SlotsBackoff 	0
scalar IntersectionExampleScenario.node[13].nic.mac1609_4 	NumInternalContention 	0
scalar IntersectionExampleScenario.node[13].nic.mac1609_4 	totalBusyTime 	0
scalar IntersectionExampleScenario.node[13].veinsmobility 	startTime 	31.25
scalar IntersectionExampleScenario.node[13].veinsmobility 	totalTime 	60
scalar IntersectionExampleScenario.node[13].veinsmobility 	stopTime 	91.5
scalar IntersectionExampleScenario.node[13].veinsmobility 	minSpeed 	0
scalar IntersectionExampleScenario.node[13].veinsmobility 	maxSpeed 	14.625
scalar IntersectionExampleScenario.node[13].veinsmobility 	totalDistance 	546.36447812468
scalar IntersectionExampleScenario.node[13].veinsmobility 	totalCO2Emission 	144.60492374741
scalar IntersectionExampleScenario.node[15].appl 	VehicleRemoved 	0
scalar IntersectionExampleScenario.node[15].appl 	ArrivedAtDest 	1
scalar IntersectionExampleScenario.node[15].appl 	IntersectionEnterTime 	40.25
scalar IntersectionExampleScenario.node[15].appl 	IntersectionExitTime 	75.774391372834
scalar IntersectionExampleScenario.node[15].appl 	NumberOfCollisions 	0
scalar IntersectionExampleScenario.node[15].nic.phy80211p 	busyTime 	0
scalar IntersectionExampleScenario.node[15].nic.mac1609_4 	ReceivedUnicastPackets 	0
scalar IntersectionExampleScenario.node[15].nic.mac1609_4 	ReceivedBroadcasts 	0
scalar IntersectionExampleScenario.node[15].nic.mac1609_4 	SentPackets 	0
scalar IntersectionExampleScenario.node[15].nic.mac1609_4 	SNIRLostPackets 	0
scalar IntersectionExampleScenario.node[15].nic.mac1609_4 	RXTXLostPackets 	0
scalar IntersectionExampleScenario.node[15].nic.mac1609_4 	TotalLostPackets 	0
scalar IntersectionExampleScenario.node[15].nic.mac1609_4 	DroppedPacketsInMac 	0
scalar IntersectionExampleScenario.node[15].nic.mac1609_4 	TooLittleTime 	0
scalar IntersectionExampleScenario.node[15].nic.mac1609_4 	TimesIntoBackoff 	0
scalar IntersectionExampleScenario.node[15].nic.mac1609_4 	SlotsBackoff 	0
scalar IntersectionExampleScenario.node[15].nic.mac1609_4 	NumInternalContention 	0
scalar IntersectionExampleScenario.node[15].nic.mac1609_4 	totalBusyTime 	0
scalar IntersectionExampleScenario.node[15].veinsmobility 	startTime 	40.25
scalar IntersectionExampleScenario.node[15].veinsmobility 	totalTime 	52.25
scalar IntersectionExampleScenario.node[15].veinsmobility 	stopTime 	92.75
scalar IntersectionExampleScenario.node[15].veinsmobility 	minSpeed 	0
scalar IntersectionExampleScenario.node[15].veinsmobility 	maxSpeed 	15.676681518555
scalar IntersectionExampleScenario.node[15].veinsmobility 	totalDistance 	549.91413945438
scalar IntersectionExampleScenario.node[15].veinsmobility 	totalCO2Emission 	147.66613101665
scalar IntersectionExampleScenario.node[16].appl 	VehicleRemoved 	0
scalar IntersectionExampleScenario.node[16].appl 	ArrivedAtDest 	1
scalar IntersectionExampleScenario.node[16].appl 	IntersectionEnterTime 	44.25
scalar IntersectionExampleScenario.node[16].appl 	IntersectionExitTime 	78.053025713714
scalar IntersectionExampleScenario.node[16].appl 	NumberOfCollisions 	0
scalar IntersectionExampleScenario.node[16].nic.phy80211p 	busyTime 	0
scalar IntersectionExampleScenario.node[16].nic.mac1609_4 	ReceivedUnicastPackets 	0
scalar IntersectionExampleScenario.node[16].nic.mac1609_4 	ReceivedBroadcasts 	0
scalar IntersectionExampleScenario.node[16].nic.mac1609_4 	SentPackets 	0
scalar IntersectionExampleScenario.node[16].nic.mac1609_4 	SNIRLostPackets 	0
scalar IntersectionExampleScenario.node[16].nic.mac1609_4 	RXTXLostPackets 	0
scalar IntersectionExampleScenario.node[16].nic.mac1609_4 	TotalLostPackets 	0
scalar IntersectionExampleScenario.node[16].nic.mac1609_4 	DroppedPacketsInMac 	0
scalar IntersectionExampleScenario.node[16].nic.mac1609_4 	TooLittleTime 	0
scalar IntersectionExampleScenario.node[16].nic.mac1609_4 	TimesIntoBackoff 	0
scalar IntersectionExampleScenario.node[16].nic.mac1609_4 	SlotsBackoff 	0
scalar IntersectionExampleScenario.node[16].nic.mac1609_4 	NumInternalContention 	0
scalar IntersectionExampleScenario.node[16].nic.mac1609_4 	totalBusyTime 	0
scalar IntersectionExampleScenario.node[16].veinsmobility 	startTime 	44.25
scalar IntersectionExampleScenario.node[16].veinsmobility 	totalTime 	50.5
scalar IntersectionExampleScenario.node[16].veinsmobility 	stopTime 	95
scalar IntersectionExampleScenario.node[16].veinsmobility 	minSpeed 	0
scalar IntersectionExampleScenario.node[16].veinsmobility 	maxSpeed 	15.237155914307
scalar IntersectionExampleScenario.node[16].veinsmobility 	totalDistance 	543.65720458117
scalar IntersectionExampleScenario.node[16].veinsmobility 	totalCO2Emission 	143.90708850173
scalar IntersectionExampleScenario.node[21].appl 	VehicleRemoved 	0
scalar IntersectionExampleScenario.node[21].appl 	ArrivedAtDest 	1
scalar IntersectionExampleScenario.node[21].appl 	IntersectionEnterTime 	61.5
scalar IntersectionExampleScenario.node[21].appl 	IntersectionExitTime 	83.56379434932
scalar IntersectionExampleScenario.node[21].appl 	NumberOfCollisions 	0
scalar IntersectionExampleScenario.node[21].nic.phy80211p 	busyTime 	0
scalar IntersectionExampleScenario.node[21].nic.mac1609_4 	ReceivedUnicastPackets 	0
scalar IntersectionExampleScenario.node[21].nic.mac1609_4 	ReceivedBroadcasts 	0
scalar IntersectionExampleScenario.node[21].nic.mac1609_4 	SentPackets 	0
scalar IntersectionExampleScenario.node[21].nic.mac1609_4 	SNIRLostPackets 	0
scalar IntersectionExampleScenario.node[21].nic.mac1609_4 	RXTXLostPackets 	0
scalar IntersectionExampleScenario.node[21].nic.mac1609_4 	TotalLostPackets 	0
scalar IntersectionExampleScenario.node[21].nic.mac1609_4 	DroppedPacketsInMac 	0
scalar IntersectionExampleScenario.node[21].nic.mac1609_4 	TooLittleTime 	0
scalar IntersectionExampleScenario.node[21].nic.mac1609_4 	TimesIntoBackoff 	0
scalar IntersectionExampleScenario.node[21].nic.mac1609_4 	SlotsBackoff 	0
scalar IntersectionExampleScenario.node[21].nic.mac1609_4 	NumInternalContention 	0
scalar IntersectionExampleScenario.node[21].nic.mac1609_4 	totalBusyTime 	0
scalar IntersectionExampleScenario.node[21].veinsmobility 	startTime 	61.5
scalar IntersectionExampleScenario.node[21].veinsmobility 	totalTime 	37.25
scalar IntersectionExampleScenario.node[21].veinsmobility 	stopTime 	99
scalar IntersectionExampleScenario.node[21].veinsmobility 	minSpeed 	5.6500000953674
scalar IntersectionExampleScenario.node[21].veinsmobility 	maxSpeed 	16.27499961853
scalar IntersectionExampleScenario.node[21].veinsmobility 	totalDistance 	550.74625396729
scalar IntersectionExampleScenario.node[21].veinsmobility 	totalCO2Emission 	122.27535332949
scalar IntersectionExampleScenario.node[14].appl 	VehicleRemoved 	0
scalar IntersectionExampleScenario.node[14].appl 	ArrivedAtDest 	1
scalar IntersectionExampleScenario.node[14].appl 	IntersectionEnterTime 	40.25
scalar IntersectionExampleScenario.node[14].appl 	IntersectionExitTime 	87.367881691724
scalar IntersectionExampleScenario.node[14].appl 	NumberOfCollisions 	0
scalar IntersectionExampleScenario.node[14].nic.phy80211p 	busyTime 	0
scalar IntersectionExampleScenario.node[14].nic.mac1609_4 	ReceivedUnicastPackets 	0
scalar IntersectionExampleScenario.node[14].nic.mac1609_4 	ReceivedBroadcasts 	0
scalar IntersectionExampleScenario.node[14].nic.mac1609_4 	SentPackets 	0
scalar IntersectionExampleScenario.node[14].nic.mac1609_4 	SNIRLostPackets 	0
scalar IntersectionExampleScenario.node[14].nic.mac1609_4 	RXTXLostPackets 	0
scalar IntersectionExampleScenario.node[14].nic.mac1609_4 	TotalLostPackets 	0
scalar IntersectionExampleScenario.node[14].nic.mac1609_4 	DroppedPacketsInMac 	0
scalar IntersectionExampleScenario.node[14].nic.mac1609_4 	TooLittleTime 	0
scalar IntersectionExampleScenario.node[14].nic.mac1609_4 	TimesIntoBackoff 	0
scalar IntersectionExampleScenario.node[14].nic.mac1609_4 	SlotsBackoff 	0
scalar IntersectionExampleScenario.node[14].nic.mac1609_4 	NumInternalContention 	0
scalar IntersectionExampleScenario.node[14].nic.mac1609_4 	totalBusyTime 	0
scalar IntersectionExampleScenario.node[14].veinsmobility 	startTime 	40.25
scalar IntersectionExampleScenario.node[14].veinsmobility 	totalTime 	63
scalar IntersectionExampleScenario.node[14].veinsmobility 	stopTime 	103.5
scalar IntersectionExampleScenario.node[14].veinsmobility 	minSpeed 	0
scalar IntersectionExampleScenario.node[14].veinsmobility 	maxSpeed 	15.64999961853
scalar IntersectionExampleScenario.node[14].veinsmobility 	totalDistance 	549.9621745502
scalar IntersectionExampleScenario.node[14].veinsmobility 	totalCO2Emission 	156.4926609639
scalar IntersectionExampleScenario.node[18].appl 	VehicleRemoved 	0
scalar IntersectionExampleScenario.node[18].appl 	ArrivedAtDest 	1
scalar IntersectionExampleScenario.node[18].appl 	IntersectionEnterTime 	49
scalar IntersectionExampleScenario.node[18].appl 	IntersectionExitTime 	89.022090305574
scalar IntersectionExampleScenario.node[18].appl 	NumberOfCollisions 	0
scalar IntersectionExampleScenario.node[18].nic.phy80211p 	busyTime 	0
scalar IntersectionExampleScenario.node[18].nic.mac1609_4 	ReceivedUnicastPackets 	0
scalar IntersectionExampleScenario.node[18].nic.mac1609_4 	ReceivedBroadcasts 	0
scalar IntersectionExampleScenario.node[18].nic.mac1609_4 	SentPackets 	0
scalar IntersectionExampleScenario.node[18].nic.mac1609_4 	SNIRLostPackets 	0
scalar IntersectionExampleScenario.node[18].nic.mac1609_4 	RXTXLostPackets 	0
scalar IntersectionExampleScenario.node[18].nic.mac1609_4 	TotalLostPackets 	0
scalar IntersectionExampleScenario.node[18].nic.mac1609_4 	DroppedPacketsInMac 	0
scalar IntersectionExampleScenario.node[18].nic.mac1609_4 	TooLittleTime 	0
scalar IntersectionExampleScenario.node[18].nic.mac1609_4 	TimesIntoBackoff 	0
scalar IntersectionExampleScenario.node[18].nic.mac1609_4 	SlotsBackoff 	0
scalar IntersectionExampleScenario.node[18].nic.mac1609_4 	NumInternalContention 	0
scalar IntersectionExampleScenario.node[18].nic.mac1609_4 	totalBusyTime 	0
scalar IntersectionExampleScenario.node[18].veinsmobility 	startTime 	49
scalar IntersectionExampleScenario.node[18].veinsmobility 	totalTime 	56.5
scalar IntersectionExampleScenario.node[18].veinsmobility 	stopTime 	105.75
scalar IntersectionExampleScenario.node[18].veinsmobility 	minSpeed 	0
scalar IntersectionExampleScenario.node[18].veinsmobility 	maxSpeed 	15.64999961853
scalar IntersectionExampleScenario.node[18].veinsmobility 	totalDistance 	549.81021965757
scalar IntersectionExampleScenario.node[18].veinsmobility 	totalCO2Emission 	144.64697693285
scalar IntersectionExampleScenario.node[20].appl 	VehicleRemoved 	0
scalar IntersectionExampleScenario.node[20].appl 	ArrivedAtDest 	1
scalar IntersectionExampleScenario.node[20].appl 	IntersectionEnterTime 	59.5
scalar IntersectionExampleScenario.node[20].appl 	IntersectionExitTime 	91.355444370391
scalar IntersectionExampleScenario.node[20].appl 	NumberOfCollisions 	0
scalar IntersectionExampleScenario.node[20].nic.phy80211p 	busyTime 	0
scalar IntersectionExampleScenario.node[20].nic.mac1609_4 	ReceivedUnicastPackets 	0
scalar IntersectionExampleScenario.node[20].nic.mac1609_4 	ReceivedBroadcasts 	0
scalar IntersectionExampleScenario.node[20].nic.mac1609_4 	SentPackets 	0
scalar IntersectionExampleScenario.node[20].nic.mac1609_4 	SNIRLostPackets 	0
scalar IntersectionExampleScenario.node[20].nic.mac1609_4 	RXTXLostPackets 	0
scalar IntersectionExampleScenario.node[20].nic.mac1609_4 	TotalLostPackets 	0
scalar IntersectionExampleScenario.node[20].nic.mac1609_4 	DroppedPacketsInMac 	0
scalar IntersectionExampleScenario.node[20].nic.mac1609_4 	TooLittleTime 	0
scalar IntersectionExampleScenario.node[20].nic.mac1609_4 	TimesIntoBackoff 	0
scalar IntersectionExampleScenario.node[20].nic.mac1609_4 	SlotsBackoff 	0
scalar IntersectionExampleScenario.node[20].nic.mac1609_4 	NumInternalContention 	0
scalar IntersectionExampleScenario.node[20].nic.mac1609_4 	totalBusyTime 	0
scalar IntersectionExampleScenario.node[20].veinsmobility 	startTime 	59.5
scalar IntersectionExampleScenario.node[20].veinsmobility 	totalTime 	47.5
scalar IntersectionExampleScenario.node[20].veinsmobility 	stopTime 	107.25
scalar IntersectionExampleScenario.node[20].veinsmobility 	minSpeed 	2.7604026794434
scalar IntersectionExampleScenario.node[20].veinsmobility 	maxSpeed 	15.64999961853
scalar IntersectionExampleScenario.node[20].veinsmobility 	totalDistance 	548.34227181532
scalar IntersectionExampleScenario.node[20].veinsmobility 	totalCO2Emission 	139.09543272406
scalar IntersectionExampleScenario.node[19].appl 	VehicleRemoved 	0
scalar IntersectionExampleScenario.node[19].appl 	ArrivedAtDest 	1
scalar IntersectionExampleScenario.node[19].appl 	IntersectionEnterTime 	59
scalar IntersectionExampleScenario.node[19].appl 	IntersectionExitTime 	97.861336032423
scalar IntersectionExampleScenario.node[19].appl 	NumberOfCollisions 	0
scalar IntersectionExampleScenario.node[19].nic.phy80211p 	busyTime 	0
scalar IntersectionExampleScenario.node[19].nic.mac1609_4 	ReceivedUnicastPackets 	0
scalar IntersectionExampleScenario.node[19].nic.mac1609_4 	ReceivedBroadcasts 	0
scalar IntersectionExampleScenario.node[19].nic.mac1609_4 	SentPackets 	0
scalar IntersectionExampleScenario.node[19].nic.mac1609_4 	SNIRLostPackets 	0
scalar IntersectionExampleScenario.node[19].nic.mac1609_4 	RXTXLostPackets 	0
scalar IntersectionExampleScenario.node[19].nic.mac1609_4 	TotalLostPackets 	0
scalar IntersectionExampleScenario.node[19].nic.mac1609_4 	DroppedPacketsInMac 	0
scalar IntersectionExampleScenario.node[19].nic.mac1609_4 	TooLittleTime 	0
scalar IntersectionExampleScenario.node[19].nic.mac1609_4 	TimesIntoBackoff 	0
scalar IntersectionExampleScenario.node[19].nic.mac1609_4 	SlotsBackoff 	0
scalar IntersectionExampleScenario.node[19].nic.mac1609_4 	NumInternalContention 	0
scalar IntersectionExampleScenario.node[19].nic.mac1609_4 	totalBusyTime 	0
scalar IntersectionExampleScenario.node[19].veinsmobility 	startTime 	59
scalar IntersectionExampleScenario.node[19].veinsmobility 	totalTime 	55.75
scalar IntersectionExampleScenario.node[19].veinsmobility 	stopTime 	115
scalar IntersectionExampleScenario.node[19].veinsmobility 	minSpeed 	0
scalar IntersectionExampleScenario.node[19].veinsmobility 	maxSpeed 	15.02499961853
scalar IntersectionExampleScenario.node[19].veinsmobility 	totalDistance 	551.44440584611
scalar IntersectionExampleScenario.node[19].veinsmobility 	totalCO2Emission 	142.21531225239
scalar IntersectionExampleScenario.node[22].appl 	VehicleRemoved 	0
scalar IntersectionExampleScenario.node[22].appl 	ArrivedAtDest 	1
scalar IntersectionExampleScenario.node[22].appl 	IntersectionEnterTime 	65
scalar IntersectionExampleScenario.node[22].appl 	IntersectionExitTime 	99.607463361666
scalar IntersectionExampleScenario.node[22].appl 	NumberOfCollisions 	0
scalar IntersectionExampleScenario.node[22].nic.phy80211p 	busyTime 	0
scalar IntersectionExampleScenario.node[22].nic.mac1609_4 	ReceivedUnicastPackets 	0
scalar IntersectionExampleScenario.node[22].nic.mac1609_4 	ReceivedBroadcasts 	0
scalar IntersectionExampleScenario.node[22].nic.mac1609_4 	SentPackets 	0
scalar IntersectionExampleScenario.node[22].nic.mac1609_4 	SNIRLostPackets 	0
scalar IntersectionExampleScenario.node[22].nic.mac1609_4 	RXTXLostPackets 	0
scalar IntersectionExampleScenario.node[22].nic.mac1609_4 	TotalLostPackets 	0
scalar IntersectionExampleScenario.node[22].nic.mac1609_4 	DroppedPacketsInMac 	0
scalar IntersectionExampleScenario.node[22].nic.mac1609_4 	TooLittleTime 	0
scalar IntersectionExampleScenario.node[22].nic.mac1609_4 	TimesIntoBackoff 	0
scalar IntersectionExampleScenario.node[22].nic.mac1609_4 	SlotsBackoff 	0
scalar IntersectionExampleScenario.node[22].nic.mac1609_4 	NumInternalContention 	0
scalar IntersectionExampleScenario.node[22].nic.mac1609_4 	totalBusyTime 	0
scalar IntersectionExampleScenario.node[22].veinsmobility 	startTime 	65
scalar IntersectionExampleScenario.node[22].veinsmobility 	totalTime 	50.25
scalar IntersectionExampleScenario.node[22].veinsmobility 	stopTime 	115.5
scalar IntersectionExampleScenario.node[22].veinsmobility 	minSpeed 	0
scalar IntersectionExampleScenario.node[22].veinsmobility 	maxSpeed 	15.5
scalar IntersectionExampleScenario.node[22].veinsmobility 	totalDistance 	551.85420227051
scalar IntersectionExampleScenario.node[22].veinsmobility 	totalCO2Emission 	141.8650753342
scalar IntersectionExampleScenario.node[24].appl 	VehicleRemoved 	0
scalar IntersectionExampleScenario.node[24].appl 	ArrivedAtDest 	1
scalar IntersectionExampleScenario.node[24].appl 	IntersectionEnterTime 	73.5
scalar IntersectionExampleScenario.node[24].appl 	IntersectionExitTime 	101.32157733128
scalar IntersectionExampleScenario.node[24].appl 	NumberOfCollisions 	0
scalar IntersectionExampleScenario.node[24].nic.phy80211p 	busyTime 	0
scalar IntersectionExampleScenario.node[24].nic.mac1609_4 	ReceivedUnicastPackets 	0
scalar IntersectionExampleScenario.node[24].nic.mac1609_4 	ReceivedBroadcasts 	0
scalar IntersectionExampleScenario.node[24].nic.mac1609_4 	SentPackets 	0
scalar IntersectionExampleScenario.node[24].nic.mac1609_4 	SNIRLostPackets 	0
scalar IntersectionExampleScenario.node[24].nic.mac1609_4 	RXTXLostPackets 	0
scalar IntersectionExampleScenario.node[24].nic.mac1609_4 	TotalLostPackets 	0
scalar IntersectionExampleScenario.node[24].nic.mac1609_4 	DroppedPacketsInMac 	0
scalar IntersectionExampleScenario.node[24].nic.mac1609_4 	TooLittleTime 	0
scalar IntersectionExampleScenario.node[24].nic.mac1609_4 	TimesIntoBackoff 	0
scalar IntersectionExampleScenario.node[24].nic.mac1609_4 	SlotsBackoff 	0
scalar IntersectionExampleScenario.node[24].nic.mac1609_4 	NumInternalContention 	0
scalar IntersectionExampleScenario.node[24].nic.mac1609_4 	totalBusyTime 	0
scalar IntersectionExampleScenario.node[24].veinsmobility 	startTime 	73.5
scalar IntersectionExampleScenario.node[24].veinsmobility 	totalTime 	44.25
scalar IntersectionExampleScenario.node[24].veinsmobility 	stopTime 	118
scalar IntersectionExampleScenario.node[24].veinsmobility 	minSpeed 	4.8364171981812
scalar IntersectionExampleScenario.node[24].veinsmobility 	maxSpeed 	15.875
scalar IntersectionExampleScenario.node[24].veinsmobility 	totalDistance 	545.83057189873
scalar IntersectionExampleScenario.node[24].veinsmobility 	totalCO2Emission 	141.93123623905
scalar IntersectionExampleScenario.node[26].appl 	VehicleRemoved 	0
scalar IntersectionExampleScenario.node[26].appl 	ArrivedAtDest 	1
scalar IntersectionExampleScenario.node[26].appl 	IntersectionEnterTime 	75.5
scalar IntersectionExampleScenario.node[26].appl 	IntersectionExitTime 	103.04150601855
scalar IntersectionExampleScenario.node[26].appl 	NumberOfCollisions 	0
scalar IntersectionExampleScenario.node[26].nic.phy80211p 	busyTime 	0
scalar IntersectionExampleScenario.node[26].nic.mac1609_4 	ReceivedUnicastPackets 	0
scalar IntersectionExampleScenario.node[26].nic.mac1609_4 	ReceivedBroadcasts 	0
scalar IntersectionExampleScenario.node[26].nic.mac1609_4 	SentPackets 	0
scalar IntersectionExampleScenario.node[26].nic.mac1609_4 	SNIRLostPackets 	0
scalar IntersectionExampleScenario.node[26].nic.mac1609_4 	RXTXLostPackets 	0
scalar IntersectionExampleScenario.node[26].nic.mac1609_4 	TotalLostPackets 	0
scalar IntersectionExampleScenario.node[26].nic.mac1609_4 	DroppedPacketsInMac 	0
scalar IntersectionExampleScenario.node[26].nic.mac1609_4 	TooLittleTime 	0
scalar IntersectionExampleScenario.node[26].nic.mac1609_4 	TimesIntoBackoff 	0
scalar IntersectionExampleScenario.node[26].nic.mac1609_4 	SlotsBackoff 	0
scalar IntersectionExampleScenario.node[26].nic.mac1609_4 	NumInternalContention 	0
scalar IntersectionExampleScenario.node[26].nic.mac1609_4 	totalBusyTime 	0
scalar IntersectionExampleScenario.node[26].veinsmobility 	startTime 	75.5
scalar IntersectionExampleScenario.node[26].veinsmobility 	totalTime 	43.5
scalar IntersectionExampleScenario.node[26].veinsmobility 	stopTime 	119.25
scalar IntersectionExampleScenario.node[26].veinsmobility 	minSpeed 	5.6500000953674
scalar IntersectionExampleScenario.node[26].veinsmobility 	maxSpeed 	15.64999961853
scalar IntersectionExampleScenario.node[26].veinsmobility 	totalDistance 	572.44625854492
scalar IntersectionExampleScenario.node[26].veinsmobility 	totalCO2Emission 	134.70160791478
scalar IntersectionExampleScenario.node[23].appl 	VehicleRemoved 	0
scalar IntersectionExampleScenario.node[23].appl 	ArrivedAtDest 	1
scalar IntersectionExampleScenario.node[23].appl 	IntersectionEnterTime 	71.25
scalar IntersectionExampleScenario.node[23].appl 	IntersectionExitTime 	109.31434224569
scalar IntersectionExampleScenario.node[23].appl 	NumberOfCollisions 	0
scalar IntersectionExampleScenario.node[23].nic.phy80211p 	busyTime 	0
scalar IntersectionExampleScenario.node[23].nic.mac1609_4 	ReceivedUnicastPackets 	0
scalar IntersectionExampleScenario.node[23].nic.mac1609_4 	ReceivedBroadcasts 	0
scalar IntersectionExampleScenario.node[23].nic.mac1609_4 	SentPackets 	0
scalar IntersectionExampleScenario.node[23].nic.mac1609_4 	SNIRLostPackets 	0
scalar IntersectionExampleScenario.node[23].nic.mac1609_4 	RXTXLostPackets 	0
scalar IntersectionExampleScenario.node[23].nic.mac1609_4 	TotalLostPackets 	0
scalar IntersectionExampleScenario.node[23].nic.mac1609_4 	DroppedPacketsInMac 	0
scalar IntersectionExampleScenario.node[23].nic.mac1609_4 	TooLittleTime 	0
scalar IntersectionExampleScenario.node[23].nic.mac1609_4 	TimesIntoBackoff 	0
scalar IntersectionExampleScenario.node[23].nic.mac1609_4 	SlotsBackoff 	0
scalar IntersectionExampleScenario.node[23].nic.mac1609_4 	NumInternalContention 	0
scalar IntersectionExampleScenario.node[23].nic.mac1609_4 	totalBusyTime 	0
scalar IntersectionExampleScenario.node[23].veinsmobility 	startTime 	71.25
scalar IntersectionExampleScenario.node[23].veinsmobility 	totalTime 	54
scalar IntersectionExampleScenario.node[23].veinsmobility 	stopTime 	125.5
scalar IntersectionExampleScenario.node[23].veinsmobility 	minSpeed 	0
scalar IntersectionExampleScenario.node[23].veinsmobility 	maxSpeed 	15.64999961853
scalar IntersectionExampleScenario.node[23].veinsmobility 	totalDistance 	551.0603953754
scalar IntersectionExampleScenario.node[23].veinsmobility 	totalCO2Emission 	147.36312241704
scalar IntersectionExampleScenario.node[25].appl 	VehicleRemoved 	0
scalar IntersectionExampleScenario.node[25].appl 	ArrivedAtDest 	1
scalar IntersectionExampleScenario.node[25].appl 	IntersectionEnterTime 	74
scalar IntersectionExampleScenario.node[25].appl 	IntersectionExitTime 	110.25674526222
scalar IntersectionExampleScenario.node[25].appl 	NumberOfCollisions 	0
scalar IntersectionExampleScenario.node[25].nic.phy80211p 	busyTime 	0
scalar IntersectionExampleScenario.node[25].nic.mac1609_4 	ReceivedUnicastPackets 	0
scalar IntersectionExampleScenario.node[25].nic.mac1609_4 	ReceivedBroadcasts 	0
scalar IntersectionExampleScenario.node[25].nic.mac1609_4 	SentPackets 	0
scalar IntersectionExampleScenario.node[25].nic.mac1609_4 	SNIRLostPackets 	0
scalar IntersectionExampleScenario.node[25].nic.mac1609_4 	RXTXLostPackets 	0
scalar IntersectionExampleScenario.node[25].nic.mac1609_4 	TotalLostPackets 	0
scalar IntersectionExampleScenario.node[25].nic.mac1609_4 	DroppedPacketsInMac 	0
scalar IntersectionExampleScenario.node[25].nic.mac1609_4 	TooLittleTime 	0
scalar IntersectionExampleScenario.node[25].nic.mac1609_4 	TimesIntoBackoff 	0
scalar IntersectionExampleScenario.node[25].nic.mac1609_4 	SlotsBackoff 	0
scalar IntersectionExampleScenario.node[25].nic.mac1609_4 	NumInternalContention 	0
scalar IntersectionExampleScenario.node[25].nic.mac1609_4 	totalBusyTime 	0
scalar IntersectionExampleScenario.node[25].veinsmobility 	startTime 	74
scalar IntersectionExampleScenario.node[25].veinsmobility 	totalTime 	51.5
scalar IntersectionExampleScenario.node[25].veinsmobility 	stopTime 	125.75
scalar IntersectionExampleScenario.node[25].veinsmobility 	minSpeed 	0
scalar IntersectionExampleScenario.node[25].veinsmobility 	maxSpeed 	16.75
scalar IntersectionExampleScenario.node[25].veinsmobility 	totalDistance 	568.63125610352
scalar IntersectionExampleScenario.node[25].veinsmobility 	totalCO2Emission 	153.81148899711
scalar IntersectionExampleScenario.node[27].appl 	VehicleRemoved 	0
scalar IntersectionExampleScenario.node[27].appl 	ArrivedAtDest 	1
scalar IntersectionExampleScenario.node[27].appl 	IntersectionEnterTime 	77.75
scalar IntersectionExampleScenario.node[27].appl 	IntersectionExitTime 	112.30096071653
scalar IntersectionExampleScenario.node[27].appl 	NumberOfCollisions 	0
scalar IntersectionExampleScenario.node[27].nic.phy80211p 	busyTime 	0
scalar IntersectionExampleScenario.node[27].nic.mac1609_4 	ReceivedUnicastPackets 	0
scalar IntersectionExampleScenario.node[27].nic.mac1609_4 	ReceivedBroadcasts 	0
scalar IntersectionExampleScenario.node[27].nic.mac1609_4 	SentPackets 	0
scalar IntersectionExampleScenario.node[27].nic.mac1609_4 	SNIRLostPackets 	0
scalar IntersectionExampleScenario.node[27].nic.mac1609_4 	RXTXLostPackets 	0
scalar IntersectionExampleScenario.node[27].nic.mac1609_4 	TotalLostPackets 	0
scalar IntersectionExampleScenario.node[27].nic.mac1609_4 	DroppedPacketsInMac 	0
scalar IntersectionExampleScenario.node[27].nic.mac1609_4 	TooLittleTime 	0
scalar IntersectionExampleScenario.node[27].nic.mac1609_4 	TimesIntoBackoff 	0
scalar IntersectionExampleScenario.node[27].nic.mac1609_4 	SlotsBackoff 	0
scalar IntersectionExampleScenario.node[27].nic.mac1609_4 	NumInternalContention 	0
scalar IntersectionExampleScenario.node[27].nic.mac1609_4 	totalBusyTime 	0
scalar IntersectionExampleScenario.node[27].veinsmobility 	startTime 	77.75
scalar IntersectionExampleScenario.node[27].veinsmobility 	totalTime 	50
scalar IntersectionExampleScenario.node[27].veinsmobility 	stopTime 	128
scalar IntersectionExampleScenario.node[27].veinsmobility 	minSpeed 	1.1567366123199
scalar IntersectionExampleScenario.node[27].veinsmobility 	maxSpeed 	16.27499961853
scalar IntersectionExampleScenario.node[27].veinsmobility 	totalDistance 	567.19441223145
scalar IntersectionExampleScenario.node[27].veinsmobility 	totalCO2Emission 	145.01237506435
scalar IntersectionExampleScenario.node[29].appl 	VehicleRemoved 	0
scalar IntersectionExampleScenario.node[29].appl 	ArrivedAtDest 	1
scalar IntersectionExampleScenario.node[29].appl 	IntersectionEnterTime 	87.75
scalar IntersectionExampleScenario.node[29].appl 	IntersectionExitTime 	114.59624158416
scalar IntersectionExampleScenario.node[29].appl 	NumberOfCollisions 	0
scalar IntersectionExampleScenario.node[29].nic.phy80211p 	busyTime 	0
scalar IntersectionExampleScenario.node[29].nic.mac1609_4 	ReceivedUnicastPackets 	0
scalar IntersectionExampleScenario.node[29].nic.mac1609_4 	ReceivedBroadcasts 	0
scalar IntersectionExampleScenario.node[29].nic.mac1609_4 	SentPackets 	0
scalar IntersectionExampleScenario.node[29].nic.mac1609_4 	SNIRLostPackets 	0
scalar IntersectionExampleScenario.node[29].nic.mac1609_4 	RXTXLostPackets 	0
scalar IntersectionExampleScenario.node[29].nic.mac1609_4 	TotalLostPackets 	0
scalar IntersectionExampleScenario.node[29].nic.mac1609_4 	DroppedPacketsInMac 	0
scalar IntersectionExampleScenario.node[29].nic.mac1609_4 	TooLittleTime 	0
scalar IntersectionExampleScenario.node[29].nic.mac1609_4 	TimesIntoBackoff 	0
scalar IntersectionExampleScenario.node[29].nic.mac1609_4 	SlotsBackoff 	0
scalar IntersectionExampleScenario.node[29].nic.mac1609_4 	NumInternalContention 	0
scalar IntersectionExampleScenario.node[29].nic.mac1609_4 	totalBusyTime 	0
scalar IntersectionExampleScenario.node[29].veinsmobility 	startTime 	87.75
scalar IntersectionExampleScenario.node[29].veinsmobility 	totalTime 	42.75
scalar IntersectionExampleScenario.node[29].veinsmobility 	stopTime 	130.75
scalar IntersectionExampleScenario.node[29].veinsmobility 	minSpeed 	5.6500000953674
scalar IntersectionExampleScenario.node[29].veinsmobility 	maxSpeed 	15.5
scalar IntersectionExampleScenario.node[29].veinsmobility 	totalDistance 	550.98581695557
scalar IntersectionExampleScenario.node[29].veinsmobility 	totalCO2Emission 	127.69415564426
scalar IntersectionExampleScenario.node[30].appl 	VehicleRemoved 	0
scalar IntersectionExampleScenario.node[30].appl 	ArrivedAtDest 	1
scalar IntersectionExampleScenario.node[30].appl 	IntersectionEnterTime 	88
scalar IntersectionExampleScenario.node[30].appl 	IntersectionExitTime 	116.28262952223
scalar IntersectionExampleScenario.node[30].appl 	NumberOfCollisions 	0
scalar IntersectionExampleScenario.node[30].nic.phy80211p 	busyTime 	0
scalar IntersectionExampleScenario.node[30].nic.mac1609_4 	ReceivedUnicastPackets 	0
scalar IntersectionExampleScenario.node[30].nic.mac1609_4 	ReceivedBroadcasts 	0
scalar IntersectionExampleScenario.node[30].nic.mac1609_4 	SentPackets 	0
scalar IntersectionExampleScenario.node[30].nic.mac1609_4 	SNIRLostPackets 	0
scalar IntersectionExampleScenario.node[30].nic.mac1609_4 	RXTXLostPackets 	0
scalar IntersectionExampleScenario.node[30].nic.mac1609_4 	TotalLostPackets 	0
scalar IntersectionExampleScenario.node[30].nic.mac1609_4 	DroppedPacketsInMac 	0
scalar IntersectionExampleScenario.node[30].nic.mac1609_4 	TooLittleTime 	0
scalar IntersectionExampleScenario.node[30].nic.mac1609_4 	TimesIntoBackoff 	0
scalar IntersectionExampleScenario.node[30].nic.mac1609_4 	SlotsBackoff 	0
scalar IntersectionExampleScenario.node[30].nic.mac1609_4 	NumInternalContention 	0
scalar IntersectionExampleScenario.node[30].nic.mac1609_4 	totalBusyTime 	0
scalar IntersectionExampleScenario.node[30].veinsmobility 	startTime 	88
scalar IntersectionExampleScenario.node[30].veinsmobility 	totalTime 	44.5
scalar IntersectionExampleScenario.node[30].veinsmobility 	stopTime 	132.75
scalar IntersectionExampleScenario.node[30].veinsmobility 	minSpeed 	5.6500000953674
scalar IntersectionExampleScenario.node[30].veinsmobility 	maxSpeed 	15.122408866882
scalar IntersectionExampleScenario.node[30].veinsmobility 	totalDistance 	578.10414886475
scalar IntersectionExampleScenario.node[30].veinsmobility 	totalCO2Emission 	127.8409511926
scalar IntersectionExampleScenario.node[33].appl 	VehicleRemoved 	0
scalar IntersectionExampleScenario.node[33].appl 	ArrivedAtDest 	1
scalar IntersectionExampleScenario.node[33].appl 	IntersectionEnterTime 	96.75
scalar IntersectionExampleScenario.node[33].appl 	IntersectionExitTime 	119.28515736587
scalar IntersectionExampleScenario.node[33].appl 	NumberOfCollisions 	0
scalar IntersectionExampleScenario.node[33].nic.phy80211p 	busyTime 	0
scalar IntersectionExampleScenario.node[33].nic.mac1609_4 	ReceivedUnicastPackets 	0
scalar IntersectionExampleScenario.node[33].nic.mac1609_4 	ReceivedBroadcasts 	0
scalar IntersectionExampleScenario.node[33].nic.mac1609_4 	SentPackets 	0
scalar IntersectionExampleScenario.node[33].nic.mac1609_4 	SNIRLostPackets 	0
scalar IntersectionExampleScenario.node[33].nic.mac1609_4 	RXTXLostPackets 	0
scalar IntersectionExampleScenario.node[33].nic.mac1609_4 	TotalLostPackets 	0
scalar IntersectionExampleScenario.node[33].nic.mac1609_4 	DroppedPacketsInMac 	0
scalar IntersectionExampleScenario.node[33].nic.mac1609_4 	TooLittleTime 	0
scalar IntersectionExampleScenario.node[33].nic.mac1609_4 	TimesIntoBackoff 	0
scalar IntersectionExampleScenario.node[33].nic.mac1609_4 	SlotsBackoff 	0
scalar IntersectionExampleScenario.node[33].nic.mac1609_4 	NumInternalContention 	0
scalar IntersectionExampleScenario.node[33].nic.mac1609_4 	totalBusyTime 	0
scalar IntersectionExampleScenario.node[33].veinsmobility 	startTime 	96.75
scalar IntersectionExampleScenario.node[33].veinsmobility 	totalTime 	38.25
scalar IntersectionExampleScenario.node[33].veinsmobility 	stopTime 	135.25
scalar IntersectionExampleScenario.node[33].veinsmobility 	minSpeed 	5.6500000953674
scalar IntersectionExampleScenario.node[33].veinsmobility 	maxSpeed 	16.89999961853
scalar IntersectionExampleScenario.node[33].veinsmobility 	totalDistance 	545.64234097246
scalar IntersectionExampleScenario.node[33].veinsmobility 	totalCO2Emission 	134.90656603119
scalar IntersectionExampleScenario.node[28].appl 	VehicleRemoved 	0
scalar IntersectionExampleScenario.node[28].appl 	ArrivedAtDest 	1
scalar IntersectionExampleScenario.node[28].appl 	IntersectionEnterTime 	83.75
scalar IntersectionExampleScenario.node[28].appl 	IntersectionExitTime 	122.31583969507
scalar IntersectionExampleScenario.node[28].appl 	NumberOfCollisions 	0
scalar IntersectionExampleScenario.node[28].nic.phy80211p 	busyTime 	0
scalar IntersectionExampleScenario.node[28].nic.mac1609_4 	ReceivedUnicastPackets 	0
scalar IntersectionExampleScenario.node[28].nic.mac1609_4 	ReceivedBroadcasts 	0
scalar IntersectionExampleScenario.node[28].nic.mac1609_4 	SentPackets 	0
scalar IntersectionExampleScenario.node[28].nic.mac1609_4 	SNIRLostPackets 	0
scalar IntersectionExampleScenario.node[28].nic.mac1609_4 	RXTXLostPackets 	0
scalar IntersectionExampleScenario.node[28].nic.mac1609_4 	TotalLostPackets 	0
scalar IntersectionExampleScenario.node[28].nic.mac1609_4 	DroppedPacketsInMac 	0
scalar IntersectionExampleScenario.node[28].nic.mac1609_4 	TooLittleTime 	0
scalar IntersectionExampleScenario.node[28].nic.mac1609_4 	TimesIntoBackoff 	0
scalar IntersectionExampleScenario.node[28].nic.mac1609_4 	SlotsBackoff 	0
scalar IntersectionExampleScenario.node[28].nic.mac1609_4 	NumInternalContention 	0
scalar IntersectionExampleScenario.node[28].nic.mac1609_4 	totalBusyTime 	0
scalar IntersectionExampleScenario.node[28].veinsmobility 	startTime 	83.75
scalar IntersectionExampleScenario.node[28].veinsmobility 	totalTime 	54.75
scalar IntersectionExampleScenario.node[28].veinsmobility 	stopTime 	138.75
scalar IntersectionExampleScenario.node[28].veinsmobility 	minSpeed 	0
scalar IntersectionExampleScenario.node[28].veinsmobility 	maxSpeed 	15.375
scalar IntersectionExampleScenario.node[28].veinsmobility 	totalDistance 	549.86317552676
scalar IntersectionExampleScenario.node[28].veinsmobility 	totalCO2Emission 	145.06470145402
scalar IntersectionExampleScenario.node[32].appl 	VehicleRemoved 	0
scalar IntersectionExampleScenario.node[32].appl 	ArrivedAtDest 	1
scalar IntersectionExampleScenario.node[32].appl 	IntersectionEnterTime 	96.5
scalar IntersectionExampleScenario.node[32].appl 	IntersectionExitTime 	123.77502306178
scalar IntersectionExampleScenario.node[32].appl 	NumberOfCollisions 	0
scalar IntersectionExampleScenario.node[32].nic.phy80211p 	busyTime 	0
scalar IntersectionExampleScenario.node[32].nic.mac1609_4 	ReceivedUnicastPackets 	0
scalar IntersectionExampleScenario.node[32].nic.mac1609_4 	ReceivedBroadcasts 	0
scalar IntersectionExampleScenario.node[32].nic.mac1609_4 	SentPackets 	0
scalar IntersectionExampleScenario.node[32].nic.mac1609_4 	SNIRLostPackets 	0
scalar IntersectionExampleScenario.node[32].nic.mac1609_4 	RXTXLostPackets 	0
scalar IntersectionExampleScenario.node[32].nic.mac1609_4 	TotalLostPackets 	0
scalar IntersectionExampleScenario.node[32].nic.mac1609_4 	DroppedPacketsInMac 	0
scalar IntersectionExampleScenario.node[32].nic.mac1609_4 	TooLittleTime 	0
scalar IntersectionExampleScenario.node[32].nic.mac1609_4 	TimesIntoBackoff 	0
scalar IntersectionExampleScenario.node[32].nic.mac1609_4 	SlotsBackoff 	0
scalar IntersectionExampleScenario.node[32].nic.mac1609_4 	NumInternalContention 	0
scalar IntersectionExampleScenario.node[32].nic.mac1609_4 	totalBusyTime 	0
scalar IntersectionExampleScenario.node[32].veinsmobility 	startTime 	96.5
scalar IntersectionExampleScenario.node[32].veinsmobility 	totalTime 	42.75
scalar IntersectionExampleScenario.node[32].veinsmobility 	stopTime 	139.5
scalar IntersectionExampleScenario.node[32].veinsmobility 	minSpeed 	4.2005348205566
scalar IntersectionExampleScenario.node[32].veinsmobility 	maxSpeed 	16.27499961853
scalar IntersectionExampleScenario.node[32].veinsmobility 	totalDistance 	553.79679107666
scalar IntersectionExampleScenario.node[32].veinsmobility 	totalCO2Emission 	136.05485783593
scalar IntersectionExampleScenario.node[31].appl 	VehicleRemoved 	0
scalar IntersectionExampleScenario.node[31].appl 	ArrivedAtDest 	1
scalar IntersectionExampleScenario.node[31].appl 	IntersectionEnterTime 	93
scalar IntersectionExampleScenario.node[31].appl 	IntersectionExitTime 	133.33061568721
scalar IntersectionExampleScenario.node[31].appl 	NumberOfCollisions 	0
scalar IntersectionExampleScenario.node[31].nic.phy80211p 	busyTime 	0
scalar IntersectionExampleScenario.node[31].nic.mac1609_4 	ReceivedUnicastPackets 	0
scalar IntersectionExampleScenario.node[31].nic.mac1609_4 	ReceivedBroadcasts 	0
scalar IntersectionExampleScenario.node[31].nic.mac1609_4 	SentPackets 	0
scalar IntersectionExampleScenario.node[31].nic.mac1609_4 	SNIRLostPackets 	0
scalar IntersectionExampleScenario.node[31].nic.mac1609_4 	RXTXLostPackets 	0
scalar IntersectionExampleScenario.node[31].nic.mac1609_4 	TotalLostPackets 	0
scalar IntersectionExampleScenario.node[31].nic.mac1609_4 	DroppedPacketsInMac 	0
scalar IntersectionExampleScenario.node[31].nic.mac1609_4 	TooLittleTime 	0
scalar IntersectionExampleScenario.node[31].nic.mac1609_4 	TimesIntoBackoff 	0
scalar IntersectionExampleScenario.node[31].nic.mac1609_4 	SlotsBackoff 	0
scalar IntersectionExampleScenario.node[31].nic.mac1609_4 	NumInternalContention 	0
scalar IntersectionExampleScenario.node[31].nic.mac1609_4 	totalBusyTime 	0
scalar IntersectionExampleScenario.node[31].veinsmobility 	startTime 	93
scalar IntersectionExampleScenario.node[31].veinsmobility 	totalTime 	56.25
scalar IntersectionExampleScenario.node[31].veinsmobility 	stopTime 	149.5
scalar IntersectionExampleScenario.node[31].veinsmobility 	minSpeed 	0
scalar IntersectionExampleScenario.node[31].veinsmobility 	maxSpeed 	15.64999961853
scalar IntersectionExampleScenario.node[31].veinsmobility 	totalDistance 	554.75634765625
scalar IntersectionExampleScenario.node[31].veinsmobility 	totalCO2Emission 	149.86376026548
scalar IntersectionExampleScenario.node[34].appl 	VehicleRemoved 	0
scalar IntersectionExampleScenario.node[34].appl 	ArrivedAtDest 	1
scalar IntersectionExampleScenario.node[34].appl 	IntersectionEnterTime 	102.75
scalar IntersectionExampleScenario.node[34].appl 	IntersectionExitTime 	134.5127485616
scalar IntersectionExampleScenario.node[34].appl 	NumberOfCollisions 	0
scalar IntersectionExampleScenario.node[34].nic.phy80211p 	busyTime 	0
scalar IntersectionExampleScenario.node[34].nic.mac1609_4 	ReceivedUnicastPackets 	0
scalar IntersectionExampleScenario.node[34].nic.mac1609_4 	ReceivedBroadcasts 	0
scalar IntersectionExampleScenario.node[34].nic.mac1609_4 	SentPackets 	0
scalar IntersectionExampleScenario.node[34].nic.mac1609_4 	SNIRLostPackets 	0
scalar IntersectionExampleScenario.node[34].nic.mac1609_4 	RXTXLostPackets 	0
scalar IntersectionExampleScenario.node[34].nic.mac1609_4 	TotalLostPackets 	0
scalar IntersectionExampleScenario.node[34].nic.mac1609_4 	DroppedPacketsInMac 	0
scalar IntersectionExampleScenario.node[34].nic.mac1609_4 	TooLittleTime 	0
scalar IntersectionExampleScenario.node[34].nic.mac1609_4 	TimesIntoBackoff 	0
scalar IntersectionExampleScenario.node[34].nic.mac1609_4 	SlotsBackoff 	0
scalar IntersectionExampleScenario.node[34].nic.mac1609_4 	NumInternalContention 	0
scalar IntersectionExampleScenario.node[34].nic.mac1609_4 	totalBusyTime 	0
scalar IntersectionExampleScenario.node[34].veinsmobility 	startTime 	102.75
scalar IntersectionExampleScenario.node[34].veinsmobility 	totalTime 	47.25
scalar IntersectionExampleScenario.node[34].veinsmobility 	stopTime 	150.25
scalar IntersectionExampleScenario.node[34].veinsmobility 	minSpeed 	1.5406526327133
scalar IntersectionExampleScenario.node[34].veinsmobility 	maxSpeed 	16.89999961853
scalar IntersectionExampleScenario.node[34].veinsmobility 	totalDistance 	552.62103324637
scalar IntersectionExampleScenario.node[34].veinsmobility 	totalCO2Emission 	144.50007853448
scalar IntersectionExampleScenario.node[35].appl 	VehicleRemoved 	0
scalar IntersectionExampleScenario.node[35].appl 	ArrivedAtDest 	1
scalar IntersectionExampleScenario.node[35].appl 	IntersectionEnterTime 	104.5
scalar IntersectionExampleScenario.node[35].appl 	IntersectionExitTime 	136.3447690341
scalar IntersectionExampleScenario.node[35].appl 	NumberOfCollisions 	0
scalar IntersectionExampleScenario.node[35].nic.phy80211p 	busyTime 	0
scalar IntersectionExampleScenario.node[35].nic.mac1609_4 	ReceivedUnicastPackets 	0
scalar IntersectionExampleScenario.node[35].nic.mac1609_4 	ReceivedBroadcasts 	0
scalar IntersectionExampleScenario.node[35].nic.mac1609_4 	SentPackets 	0
scalar IntersectionExampleScenario.node[35].nic.mac1609_4 	SNIRLostPackets 	0
scalar IntersectionExampleScenario.node[35].nic.mac1609_4 	RXTXLostPackets 	0
scalar IntersectionExampleScenario.node[35].nic.mac1609_4 	TotalLostPackets 	0
scalar IntersectionExampleScenario.node[35].nic.mac1609_4 	DroppedPacketsInMac 	0
scalar IntersectionExampleScenario.node[35].nic.mac1609_4 	TooLittleTime 	0
scalar IntersectionExampleScenario.node[35].nic.mac1609_4 	TimesIntoBackoff 	0
scalar IntersectionExampleScenario.node[35].nic.mac1609_4 	SlotsBackoff 	0
scalar IntersectionExampleScenario.node[35].nic.mac1609_4 	NumInternalContention 	0
scalar IntersectionExampleScenario.node[35].nic.mac1609_4 	totalBusyTime 	0
scalar IntersectionExampleScenario.node[35].veinsmobility 	startTime 	104.5
scalar IntersectionExampleScenario.node[35].veinsmobility 	totalTime 	47.75
scalar IntersectionExampleScenario.node[35].veinsmobility 	stopTime 	152.5
scalar IntersectionExampleScenario.node[35].veinsmobility 	minSpeed 	3.9820580482483
scalar IntersectionExampleScenario.node[35].veinsmobility 	maxSpeed 	15.64999961853
scalar IntersectionExampleScenario.node[35].veinsmobility 	totalDistance 	574.23924255371
scalar IntersectionExampleScenario.node[35].veinsmobility 	totalCO2Emission 	139.37959266349
scalar IntersectionExampleScenario.node[36].appl 	VehicleRemoved 	0
scalar IntersectionExampleScenario.node[36].appl 	ArrivedAtDest 	1
scalar IntersectionExampleScenario.node[36].appl 	IntersectionEnterTime 	108.5
scalar IntersectionExampleScenario.node[36].appl 	IntersectionExitTime 	138.57308966425
scalar IntersectionExampleScenario.node[36].appl 	NumberOfCollisions 	0
scalar IntersectionExampleScenario.node[36].nic.phy80211p 	busyTime 	0
scalar IntersectionExampleScenario.node[36].nic.mac1609_4 	ReceivedUnicastPackets 	0
scalar IntersectionExampleScenario.node[36].nic.mac1609_4 	ReceivedBroadcasts 	0
scalar IntersectionExampleScenario.node[36].nic.mac1609_4 	SentPackets 	0
scalar IntersectionExampleScenario.node[36].nic.mac1609_4 	SNIRLostPackets 	0
scalar IntersectionExampleScenario.node[36].nic.mac1609_4 	RXTXLostPackets 	0
scalar IntersectionExampleScenario.node[36].nic.mac1609_4 	TotalLostPackets 	0
scalar IntersectionExampleScenario.node[36].nic.mac1609_4 	DroppedPacketsInMac 	0
scalar IntersectionExampleScenario.node[36].nic.mac1609_4 	TooLittleTime 	0
scalar IntersectionExampleScenario.node[36].nic.mac1609_4 	TimesIntoBackoff 	0
scalar IntersectionExampleScenario.node[36].nic.mac1609_4 	SlotsBackoff 	0
scalar IntersectionExampleScenario.node[36].nic.mac1609_4 	NumInternalContention 	0
scalar IntersectionExampleScenario.node[36].nic.mac1609_4 	totalBusyTime 	0
scalar IntersectionExampleScenario.node[36].veinsmobility 	startTime 	108.5
scalar IntersectionExampleScenario.node[36].veinsmobility 	totalTime 	46.25
scalar IntersectionExampleScenario.node[36].veinsmobility 	stopTime 	155
scalar IntersectionExampleScenario.node[36].veinsmobility 	minSpeed 	4.2711300849915
scalar IntersectionExampleScenario.node[36].veinsmobility 	maxSpeed 	15.875
scalar IntersectionExampleScenario.node[36].veinsmobility 	totalDistance 	558.79469247373
scalar IntersectionExampleScenario.node[36].veinsmobility 	totalCO2Emission 	142.40236340313
scalar IntersectionExampleScenario.node[37].appl 	VehicleRemoved 	0
scalar IntersectionExampleScenario.node[37].appl 	ArrivedAtDest 	1
scalar IntersectionExampleScenario.node[37].appl 	IntersectionEnterTime 	115
scalar IntersectionExampleScenario.node[37].appl 	IntersectionExitTime 	144.27162022842
scalar IntersectionExampleScenario.node[37].appl 	NumberOfCollisions 	0
scalar IntersectionExampleScenario.node[37].nic.phy80211p 	busyTime 	0
scalar IntersectionExampleScenario.node[37].nic.mac1609_4 	ReceivedUnicastPackets 	0
scalar IntersectionExampleScenario.node[37].nic.mac1609_4 	ReceivedBroadcasts 	0
scalar IntersectionExampleScenario.node[37].nic.mac1609_4 	SentPackets 	0
scalar IntersectionExampleScenario.node[37].nic.mac1609_4 	SNIRLostPackets 	0
scalar IntersectionExampleScenario.node[37].nic.mac1609_4 	RXTXLostPackets 	0
scalar IntersectionExampleScenario.node[37].nic.mac1609_4 	TotalLostPackets 	0
scalar IntersectionExampleScenario.node[37].nic.mac1609_4 	DroppedPacketsInMac 	0
scalar IntersectionExampleScenario.node[37].nic.mac1609_4 	TooLittleTime 	0
scalar IntersectionExampleScenario.node[37].nic.mac1609_4 	TimesIntoBackoff 	0
scalar IntersectionExampleScenario.node[37].nic.mac1609_4 	SlotsBackoff 	0
scalar IntersectionExampleScenario.node[37].nic.mac1609_4 	NumInternalContention 	0
scalar IntersectionExampleScenario.node[37].nic.mac1609_4 	totalBusyTime 	0
scalar IntersectionExampleScenario.node[37].veinsmobility 	startTime 	115
scalar IntersectionExampleScenario.node[37].veinsmobility 	totalTime 	45
scalar IntersectionExampleScenario.node[37].veinsmobility 	stopTime 	160.25
scalar IntersectionExampleScenario.node[37].veinsmobility 	minSpeed 	0
scalar IntersectionExampleScenario.node[37].veinsmobility 	maxSpeed 	16
scalar IntersectionExampleScenario.node[37].veinsmobility 	totalDistance 	554.25534057617
scalar IntersectionExampleScenario.node[37].veinsmobility 	totalCO2Emission 	140.71710248082
scalar IntersectionExampleScenario.node[38].appl 	VehicleRemoved 	0
scalar IntersectionExampleScenario.node[38].appl 	ArrivedAtDest 	1
scalar IntersectionExampleScenario.node[38].appl 	IntersectionEnterTime 	119.25
scalar IntersectionExampleScenario.node[38].appl 	IntersectionExitTime 	145.33827759483
scalar IntersectionExampleScenario.node[38].appl 	NumberOfCollisions 	0
scalar IntersectionExampleScenario.node[38].nic.phy80211p 	busyTime 	0
scalar IntersectionExampleScenario.node[38].nic.mac1609_4 	ReceivedUnicastPackets 	0
scalar IntersectionExampleScenario.node[38].nic.mac1609_4 	ReceivedBroadcasts 	0
scalar IntersectionExampleScenario.node[38].nic.mac1609_4 	SentPackets 	0
scalar IntersectionExampleScenario.node[38].nic.mac1609_4 	SNIRLostPackets 	0
scalar IntersectionExampleScenario.node[38].nic.mac1609_4 	RXTXLostPackets 	0
scalar IntersectionExampleScenario.node[38].nic.mac1609_4 	TotalLostPackets 	0
scalar IntersectionExampleScenario.node[38].nic.mac1609_4 	DroppedPacketsInMac 	0
scalar IntersectionExampleScenario.node[38].nic.mac1609_4 	TooLittleTime 	0
scalar IntersectionExampleScenario.node[38].nic.mac1609_4 	TimesIntoBackoff 	0
scalar IntersectionExampleScenario.node[38].nic.mac1609_4 	SlotsBackoff 	0
scalar IntersectionExampleScenario.node[38].nic.mac1609_4 	NumInternalContention 	0
scalar IntersectionExampleScenario.node[38].nic.mac1609_4 	totalBusyTime 	0
scalar IntersectionExampleScenario.node[38].veinsmobility 	startTime 	119.25
scalar IntersectionExampleScenario.node[38].veinsmobility 	totalTime 	41.5
scalar IntersectionExampleScenario.node[38].veinsmobility 	stopTime 	161
scalar IntersectionExampleScenario.node[38].veinsmobility 	minSpeed 	2.6113872528076
scalar IntersectionExampleScenario.node[38].veinsmobility 	maxSpeed 	16.625
scalar IntersectionExampleScenario.node[38].veinsmobility 	totalDistance 	556.47866255399
scalar IntersectionExampleScenario.node[38].veinsmobility 	totalCO2Emission 	140.63325871442
scalar IntersectionExampleScenario.node[39].appl 	VehicleRemoved 	0
scalar IntersectionExampleScenario.node[39].appl 	ArrivedAtDest 	1
scalar IntersectionExampleScenario.node[39].appl 	IntersectionEnterTime 	122.25
scalar IntersectionExampleScenario.node[39].appl 	IntersectionExitTime 	148.11121095333
scalar IntersectionExampleScenario.node[39].appl 	NumberOfCollisions 	0
scalar IntersectionExampleScenario.node[39].nic.phy80211p 	busyTime 	0
scalar IntersectionExampleScenario.node[39].nic.mac1609_4 	ReceivedUnicastPackets 	0
scalar IntersectionExampleScenario.node[39].nic.mac1609_4 	ReceivedBroadcasts 	0
scalar IntersectionExampleScenario.node[39].nic.mac1609_4 	SentPackets 	0
scalar IntersectionExampleScenario.node[39].nic.mac1609_4 	SNIRLostPackets 	0
scalar IntersectionExampleScenario.node[39].nic.mac1609_4 	RXTXLostPackets 	0
scalar IntersectionExampleScenario.node[39].nic.mac1609_4 	TotalLostPackets 	0
scalar IntersectionExampleScenario.node[39].nic.mac1609_4 	DroppedPacketsInMac 	0
scalar IntersectionExampleScenario.node[39].nic.mac1609_4 	TooLittleTime 	0
scalar IntersectionExampleScenario.node[39].nic.mac1609_4 	TimesIntoBackoff 	0
[...]
scalar IntersectionExampleScenario.node[482].veinsmobility 	totalDistance 	293.62500409329
scalar IntersectionExampleScenario.node[482].veinsmobility 	totalCO2Emission 	92.277289689387
scalar IntersectionExampleScenario.node[483].appl 	VehicleRemoved 	0
scalar IntersectionExampleScenario.node[483].appl 	ArrivedAtDest 	0
scalar IntersectionExampleScenario.node[483].appl 	IntersectionEnterTime 	1761
scalar IntersectionExampleScenario.node[483].appl 	IntersectionExitTime 	-1
scalar IntersectionExampleScenario.node[483].appl 	NumberOfCollisions 	0
scalar IntersectionExampleScenario.node[483].nic.phy80211p 	busyTime 	0
scalar IntersectionExampleScenario.node[483].nic.mac1609_4 	ReceivedUnicastPackets 	0
scalar IntersectionExampleScenario.node[483].nic.mac1609_4 	ReceivedBroadcasts 	0
scalar IntersectionExampleScenario.node[483].nic.mac1609_4 	SentPackets 	0
scalar IntersectionExampleScenario.node[483].nic.mac1609_4 	SNIRLostPackets 	0
scalar IntersectionExampleScenario.node[483].nic.mac1609_4 	RXTXLostPackets 	0
scalar IntersectionExampleScenario.node[483].nic.mac1609_4 	TotalLostPackets 	0
scalar IntersectionExampleScenario.node[483].nic.mac1609_4 	DroppedPacketsInMac 	0
scalar IntersectionExampleScenario.node[483].nic.mac1609_4 	TooLittleTime 	0
scalar IntersectionExampleScenario.node[483].nic.mac1609_4 	TimesIntoBackoff 	0
scalar IntersectionExampleScenario.node[483].nic.mac1609_4 	SlotsBackoff 	0
scalar IntersectionExampleScenario.node[483].nic.mac1609_4 	NumInternalContention 	0
scalar IntersectionExampleScenario.node[483].nic.mac1609_4 	totalBusyTime 	0
scalar IntersectionExampleScenario.node[483].veinsmobility 	startTime 	1761
scalar IntersectionExampleScenario.node[483].veinsmobility 	totalTime 	39
scalar IntersectionExampleScenario.node[483].veinsmobility 	stopTime 	1800
scalar IntersectionExampleScenario.node[483].veinsmobility 	minSpeed 	0
scalar IntersectionExampleScenario.node[483].veinsmobility 	maxSpeed 	15.02499961853
scalar IntersectionExampleScenario.node[483].veinsmobility 	totalDistance 	284.52304840088
scalar IntersectionExampleScenario.node[483].veinsmobility 	totalCO2Emission 	80.583734123657
scalar IntersectionExampleScenario.node[484].appl 	VehicleRemoved 	0
scalar IntersectionExampleScenario.node[484].appl 	ArrivedAtDest 	0
scalar IntersectionExampleScenario.node[484].appl 	IntersectionEnterTime 	1762.5
scalar IntersectionExampleScenario.node[484].appl 	IntersectionExitTime 	1785.8430005776
scalar IntersectionExampleScenario.node[484].appl 	NumberOfCollisions 	0
scalar IntersectionExampleScenario.node[484].nic.phy80211p 	busyTime 	0
scalar IntersectionExampleScenario.node[484].nic.mac1609_4 	ReceivedUnicastPackets 	0
scalar IntersectionExampleScenario.node[484].nic.mac1609_4 	ReceivedBroadcasts 	0
scalar IntersectionExampleScenario.node[484].nic.mac1609_4 	SentPackets 	0
scalar IntersectionExampleScenario.node[484].nic.mac1609_4 	SNIRLostPackets 	0
scalar IntersectionExampleScenario.node[484].nic.mac1609_4 	RXTXLostPackets 	0
scalar IntersectionExampleScenario.node[484].nic.mac1609_4 	TotalLostPackets 	0
scalar IntersectionExampleScenario.node[484].nic.mac1609_4 	DroppedPacketsInMac 	0
scalar IntersectionExampleScenario.node[484].nic.mac1609_4 	TooLittleTime 	0
scalar IntersectionExampleScenario.node[484].nic.mac1609_4 	TimesIntoBackoff 	0
scalar IntersectionExampleScenario.node[484].nic.mac1609_4 	SlotsBackoff 	0
scalar IntersectionExampleScenario.node[484].nic.mac1609_4 	NumInternalContention 	0
scalar IntersectionExampleScenario.node[484].nic.mac1609_4 	totalBusyTime 	0
scalar IntersectionExampleScenario.node[484].veinsmobility 	startTime 	1762.5
scalar IntersectionExampleScenario.node[484].veinsmobility 	totalTime 	37.5
scalar IntersectionExampleScenario.node[484].veinsmobility 	stopTime 	1800
scalar IntersectionExampleScenario.node[484].veinsmobility 	minSpeed 	5.6500000953674
scalar IntersectionExampleScenario.node[484].veinsmobility 	maxSpeed 	15.108242988586
scalar IntersectionExampleScenario.node[484].veinsmobility 	totalDistance 	521.21063232422
scalar IntersectionExampleScenario.node[484].veinsmobility 	totalCO2Emission 	114.20567633439
scalar IntersectionExampleScenario.node[485].appl 	VehicleRemoved 	0
scalar IntersectionExampleScenario.node[485].appl 	ArrivedAtDest 	0
scalar IntersectionExampleScenario.node[485].appl 	IntersectionEnterTime 	1764
scalar IntersectionExampleScenario.node[485].appl 	IntersectionExitTime 	1791.5779103297
scalar IntersectionExampleScenario.node[485].appl 	NumberOfCollisions 	0
scalar IntersectionExampleScenario.node[485].nic.phy80211p 	busyTime 	0
scalar IntersectionExampleScenario.node[485].nic.mac1609_4 	ReceivedUnicastPackets 	0
scalar IntersectionExampleScenario.node[485].nic.mac1609_4 	ReceivedBroadcasts 	0
scalar IntersectionExampleScenario.node[485].nic.mac1609_4 	SentPackets 	0
scalar IntersectionExampleScenario.node[485].nic.mac1609_4 	SNIRLostPackets 	0
scalar IntersectionExampleScenario.node[485].nic.mac1609_4 	RXTXLostPackets 	0
scalar IntersectionExampleScenario.node[485].nic.mac1609_4 	TotalLostPackets 	0
scalar IntersectionExampleScenario.node[485].nic.mac1609_4 	DroppedPacketsInMac 	0
scalar IntersectionExampleScenario.node[485].nic.mac1609_4 	TooLittleTime 	0
scalar IntersectionExampleScenario.node[485].nic.mac1609_4 	TimesIntoBackoff 	0
scalar IntersectionExampleScenario.node[485].nic.mac1609_4 	SlotsBackoff 	0
scalar IntersectionExampleScenario.node[485].nic.mac1609_4 	NumInternalContention 	0
scalar IntersectionExampleScenario.node[485].nic.mac1609_4 	totalBusyTime 	0
scalar IntersectionExampleScenario.node[485].veinsmobility 	startTime 	1764
scalar IntersectionExampleScenario.node[485].veinsmobility 	totalTime 	36
scalar IntersectionExampleScenario.node[485].veinsmobility 	stopTime 	1800
scalar IntersectionExampleScenario.node[485].veinsmobility 	minSpeed 	0
scalar IntersectionExampleScenario.node[485].veinsmobility 	maxSpeed 	15.25
scalar IntersectionExampleScenario.node[485].veinsmobility 	totalDistance 	419.88763574915
scalar IntersectionExampleScenario.node[485].veinsmobility 	totalCO2Emission 	118.03389946309
scalar IntersectionExampleScenario.node[486].appl 	VehicleRemoved 	0
scalar IntersectionExampleScenario.node[486].appl 	ArrivedAtDest 	0
scalar IntersectionExampleScenario.node[486].appl 	IntersectionEnterTime 	1767.5
scalar IntersectionExampleScenario.node[486].appl 	IntersectionExitTime 	1791.7584104514
scalar IntersectionExampleScenario.node[486].appl 	NumberOfCollisions 	0
scalar IntersectionExampleScenario.node[486].nic.phy80211p 	busyTime 	0
scalar IntersectionExampleScenario.node[486].nic.mac1609_4 	ReceivedUnicastPackets 	0
scalar IntersectionExampleScenario.node[486].nic.mac1609_4 	ReceivedBroadcasts 	0
scalar IntersectionExampleScenario.node[486].nic.mac1609_4 	SentPackets 	0
scalar IntersectionExampleScenario.node[486].nic.mac1609_4 	SNIRLostPackets 	0
scalar IntersectionExampleScenario.node[486].nic.mac1609_4 	RXTXLostPackets 	0
scalar IntersectionExampleScenario.node[486].nic.mac1609_4 	TotalLostPackets 	0
scalar IntersectionExampleScenario.node[486].nic.mac1609_4 	DroppedPacketsInMac 	0
scalar IntersectionExampleScenario.node[486].nic.mac1609_4 	TooLittleTime 	0
scalar IntersectionExampleScenario.node[486].nic.mac1609_4 	TimesIntoBackoff 	0
scalar IntersectionExampleScenario.node[486].nic.mac1609_4 	SlotsBackoff 	0
scalar IntersectionExampleScenario.node[486].nic.mac1609_4 	NumInternalContention 	0
scalar IntersectionExampleScenario.node[486].nic.mac1609_4 	totalBusyTime 	0
scalar IntersectionExampleScenario.node[486].veinsmobility 	startTime 	1767.5
scalar IntersectionExampleScenario.node[486].veinsmobility 	totalTime 	32.5
scalar IntersectionExampleScenario.node[486].veinsmobility 	stopTime 	1800
scalar IntersectionExampleScenario.node[486].veinsmobility 	minSpeed 	5.6500000953674
scalar IntersectionExampleScenario.node[486].veinsmobility 	maxSpeed 	16.75
scalar IntersectionExampleScenario.node[486].veinsmobility 	totalDistance 	442.38199615479
scalar IntersectionExampleScenario.node[486].veinsmobility 	totalCO2Emission 	124.48323751969
scalar IntersectionExampleScenario.node[487].appl 	VehicleRemoved 	0
scalar IntersectionExampleScenario.node[487].appl 	ArrivedAtDest 	0
scalar IntersectionExampleScenario.node[487].appl 	IntersectionEnterTime 	1774.25
scalar IntersectionExampleScenario.node[487].appl 	IntersectionExitTime 	1797.7810083867
scalar IntersectionExampleScenario.node[487].appl 	NumberOfCollisions 	0
scalar IntersectionExampleScenario.node[487].nic.phy80211p 	busyTime 	0
scalar IntersectionExampleScenario.node[487].nic.mac1609_4 	ReceivedUnicastPackets 	0
scalar IntersectionExampleScenario.node[487].nic.mac1609_4 	ReceivedBroadcasts 	0
scalar IntersectionExampleScenario.node[487].nic.mac1609_4 	SentPackets 	0
scalar IntersectionExampleScenario.node[487].nic.mac1609_4 	SNIRLostPackets 	0
scalar IntersectionExampleScenario.node[487].nic.mac1609_4 	RXTXLostPackets 	0
scalar IntersectionExampleScenario.node[487].nic.mac1609_4 	TotalLostPackets 	0
scalar IntersectionExampleScenario.node[487].nic.mac1609_4 	DroppedPacketsInMac 	0
scalar IntersectionExampleScenario.node[487].nic.mac1609_4 	TooLittleTime 	0
scalar IntersectionExampleScenario.node[487].nic.mac1609_4 	TimesIntoBackoff 	0
scalar IntersectionExampleScenario.node[487].nic.mac1609_4 	SlotsBackoff 	0
scalar IntersectionExampleScenario.node[487].nic.mac1609_4 	NumInternalContention 	0
scalar IntersectionExampleScenario.node[487].nic.mac1609_4 	totalBusyTime 	0
scalar IntersectionExampleScenario.node[487].veinsmobility 	startTime 	1774.25
scalar IntersectionExampleScenario.node[487].veinsmobility 	totalTime 	25.75
scalar IntersectionExampleScenario.node[487].veinsmobility 	stopTime 	1800
scalar IntersectionExampleScenario.node[487].veinsmobility 	minSpeed 	5.6500000953674
scalar IntersectionExampleScenario.node[487].veinsmobility 	maxSpeed 	15.664847373962
scalar IntersectionExampleScenario.node[487].veinsmobility 	totalDistance 	326.91255714896
scalar IntersectionExampleScenario.node[487].veinsmobility 	totalCO2Emission 	88.085189499359
scalar IntersectionExampleScenario.node[488].appl 	VehicleRemoved 	0
scalar IntersectionExampleScenario.node[488].appl 	ArrivedAtDest 	0
scalar IntersectionExampleScenario.node[488].appl 	IntersectionEnterTime 	1775.75
scalar IntersectionExampleScenario.node[488].appl 	IntersectionExitTime 	-1
scalar IntersectionExampleScenario.node[488].appl 	NumberOfCollisions 	0
scalar IntersectionExampleScenario.node[488].nic.phy80211p 	busyTime 	0
scalar IntersectionExampleScenario.node[488].nic.mac1609_4 	ReceivedUnicastPackets 	0
scalar IntersectionExampleScenario.node[488].nic.mac1609_4 	ReceivedBroadcasts 	0
scalar IntersectionExampleScenario.node[488].nic.mac1609_4 	SentPackets 	0
scalar IntersectionExampleScenario.node[488].nic.mac1609_4 	SNIRLostPackets 	0
scalar IntersectionExampleScenario.node[488].nic.mac1609_4 	RXTXLostPackets 	0
scalar IntersectionExampleScenario.node[488].nic.mac1609_4 	TotalLostPackets 	0
scalar IntersectionExampleScenario.node[488].nic.mac1609_4 	DroppedPacketsInMac 	0
scalar IntersectionExampleScenario.node[488].nic.mac1609_4 	TooLittleTime 	0
scalar IntersectionExampleScenario.node[488].nic.mac1609_4 	TimesIntoBackoff 	0
scalar IntersectionExampleScenario.node[488].nic.mac1609_4 	SlotsBackoff 	0
scalar IntersectionExampleScenario.node[488].nic.mac1609_4 	NumInternalContention 	0
scalar IntersectionExampleScenario.node[488].nic.mac1609_4 	totalBusyTime 	0
scalar IntersectionExampleScenario.node[488].veinsmobility 	startTime 	1775.75
scalar IntersectionExampleScenario.node[488].veinsmobility 	totalTime 	24.25
scalar IntersectionExampleScenario.node[488].veinsmobility 	stopTime 	1800
scalar IntersectionExampleScenario.node[488].veinsmobility 	minSpeed 	0
scalar IntersectionExampleScenario.node[488].veinsmobility 	maxSpeed 	15.02499961853
scalar IntersectionExampleScenario.node[488].veinsmobility 	totalDistance 	307.71566772461
scalar IntersectionExampleScenario.node[488].veinsmobility 	totalCO2Emission 	67.309925060861
scalar IntersectionExampleScenario.node[489].appl 	VehicleRemoved 	0
scalar IntersectionExampleScenario.node[489].appl 	ArrivedAtDest 	0
scalar IntersectionExampleScenario.node[489].appl 	IntersectionEnterTime 	1782.25
scalar IntersectionExampleScenario.node[489].appl 	IntersectionExitTime 	-1
scalar IntersectionExampleScenario.node[489].appl 	NumberOfCollisions 	0
scalar IntersectionExampleScenario.node[489].nic.phy80211p 	busyTime 	0
scalar IntersectionExampleScenario.node[489].nic.mac1609_4 	ReceivedUnicastPackets 	0
scalar IntersectionExampleScenario.node[489].nic.mac1609_4 	ReceivedBroadcasts 	0
scalar IntersectionExampleScenario.node[489].nic.mac1609_4 	SentPackets 	0
scalar IntersectionExampleScenario.node[489].nic.mac1609_4 	SNIRLostPackets 	0
scalar IntersectionExampleScenario.node[489].nic.mac1609_4 	RXTXLostPackets 	0
scalar IntersectionExampleScenario.node[489].nic.mac1609_4 	TotalLostPackets 	0
scalar IntersectionExampleScenario.node[489].nic.mac1609_4 	DroppedPacketsInMac 	0
scalar IntersectionExampleScenario.node[489].nic.mac1609_4 	TooLittleTime 	0
scalar IntersectionExampleScenario.node[489].nic.mac1609_4 	TimesIntoBackoff 	0
scalar IntersectionExampleScenario.node[489].nic.mac1609_4 	SlotsBackoff 	0
scalar IntersectionExampleScenario.node[489].nic.mac1609_4 	NumInternalContention 	0
scalar IntersectionExampleScenario.node[489].nic.mac1609_4 	totalBusyTime 	0
scalar IntersectionExampleScenario.node[489].veinsmobility 	startTime 	1782.25
scalar IntersectionExampleScenario.node[489].veinsmobility 	totalTime 	17.75
scalar IntersectionExampleScenario.node[489].veinsmobility 	stopTime 	1800
scalar IntersectionExampleScenario.node[489].veinsmobility 	minSpeed 	5.6500000953674
scalar IntersectionExampleScenario.node[489].veinsmobility 	maxSpeed 	15.02499961853
scalar IntersectionExampleScenario.node[489].veinsmobility 	totalDistance 	241.72790527344
scalar IntersectionExampleScenario.node[489].veinsmobility 	totalCO2Emission 	58.3270499196
scalar IntersectionExampleScenario.node[490].appl 	VehicleRemoved 	0
scalar IntersectionExampleScenario.node[490].appl 	ArrivedAtDest 	0
scalar IntersectionExampleScenario.node[490].appl 	IntersectionEnterTime 	1793.75
scalar IntersectionExampleScenario.node[490].appl 	IntersectionExitTime 	-1
scalar IntersectionExampleScenario.node[490].appl 	NumberOfCollisions 	0
scalar IntersectionExampleScenario.node[490].nic.phy80211p 	busyTime 	0
scalar IntersectionExampleScenario.node[490].nic.mac1609_4 	ReceivedUnicastPackets 	0
scalar IntersectionExampleScenario.node[490].nic.mac1609_4 	ReceivedBroadcasts 	0
scalar IntersectionExampleScenario.node[490].nic.mac1609_4 	SentPackets 	0
scalar IntersectionExampleScenario.node[490].nic.mac1609_4 	SNIRLostPackets 	0
scalar IntersectionExampleScenario.node[490].nic.mac1609_4 	RXTXLostPackets 	0
scalar IntersectionExampleScenario.node[490].nic.mac1609_4 	TotalLostPackets 	0
scalar IntersectionExampleScenario.node[490].nic.mac1609_4 	DroppedPacketsInMac 	0
scalar IntersectionExampleScenario.node[490].nic.mac1609_4 	TooLittleTime 	0
scalar IntersectionExampleScenario.node[490].nic.mac1609_4 	TimesIntoBackoff 	0
scalar IntersectionExampleScenario.node[490].nic.mac1609_4 	SlotsBackoff 	0
scalar IntersectionExampleScenario.node[490].nic.mac1609_4 	NumInternalContention 	0
scalar IntersectionExampleScenario.node[490].nic.mac1609_4 	totalBusyTime 	0
scalar IntersectionExampleScenario.node[490].veinsmobility 	startTime 	1793.75
scalar IntersectionExampleScenario.node[490].veinsmobility 	totalTime 	6.25
scalar IntersectionExampleScenario.node[490].veinsmobility 	stopTime 	1800
scalar IntersectionExampleScenario.node[490].veinsmobility 	minSpeed 	5.6500000953674
scalar IntersectionExampleScenario.node[490].veinsmobility 	maxSpeed 	15.64999961853
scalar IntersectionExampleScenario.node[490].veinsmobility 	totalDistance 	74.701599121094
scalar IntersectionExampleScenario.node[490].veinsmobility 	totalCO2Emission 	36.629855519301
scalar IntersectionExampleScenario.node[491].appl 	VehicleRemoved 	0
scalar IntersectionExampleScenario.node[491].appl 	ArrivedAtDest 	0
scalar IntersectionExampleScenario.node[491].appl 	IntersectionEnterTime 	1798.5
scalar IntersectionExampleScenario.node[491].appl 	IntersectionExitTime 	-1
scalar IntersectionExampleScenario.node[491].appl 	NumberOfCollisions 	0
scalar IntersectionExampleScenario.node[491].nic.phy80211p 	busyTime 	0
scalar IntersectionExampleScenario.node[491].nic.mac1609_4 	ReceivedUnicastPackets 	0
scalar IntersectionExampleScenario.node[491].nic.mac1609_4 	ReceivedBroadcasts 	0
scalar IntersectionExampleScenario.node[491].nic.mac1609_4 	SentPackets 	0
scalar IntersectionExampleScenario.node[491].nic.mac1609_4 	SNIRLostPackets 	0
scalar IntersectionExampleScenario.node[491].nic.mac1609_4 	RXTXLostPackets 	0
scalar IntersectionExampleScenario.node[491].nic.mac1609_4 	TotalLostPackets 	0
scalar IntersectionExampleScenario.node[491].nic.mac1609_4 	DroppedPacketsInMac 	0
scalar IntersectionExampleScenario.node[491].nic.mac1609_4 	TooLittleTime 	0
scalar IntersectionExampleScenario.node[491].nic.mac1609_4 	TimesIntoBackoff 	0
scalar IntersectionExampleScenario.node[491].nic.mac1609_4 	SlotsBackoff 	0
scalar IntersectionExampleScenario.node[491].nic.mac1609_4 	NumInternalContention 	0
scalar IntersectionExampleScenario.node[491].nic.mac1609_4 	totalBusyTime 	0
scalar IntersectionExampleScenario.node[491].veinsmobility 	startTime 	1798.5
scalar IntersectionExampleScenario.node[491].veinsmobility 	totalTime 	1.5
scalar IntersectionExampleScenario.node[491].veinsmobility 	stopTime 	1800
scalar IntersectionExampleScenario.node[491].veinsmobility 	minSpeed 	5.6500000953674
scalar IntersectionExampleScenario.node[491].veinsmobility 	maxSpeed 	8.7749996185303
scalar IntersectionExampleScenario.node[491].veinsmobility 	totalDistance 	10.350036621094
scalar IntersectionExampleScenario.node[491].veinsmobility 	totalCO2Emission 	7.5597628883124
scalar IntersectionExampleScenario.node[492].appl 	VehicleRemoved 	0
scalar IntersectionExampleScenario.node[492].appl 	ArrivedAtDest 	0
scalar IntersectionExampleScenario.node[492].appl 	IntersectionEnterTime 	1799.75
scalar IntersectionExampleScenario.node[492].appl 	IntersectionExitTime 	-1
scalar IntersectionExampleScenario.node[492].appl 	NumberOfCollisions 	0
scalar IntersectionExampleScenario.node[492].nic.phy80211p 	busyTime 	0
scalar IntersectionExampleScenario.node[492].nic.mac1609_4 	ReceivedUnicastPackets 	0
scalar IntersectionExampleScenario.node[492].nic.mac1609_4 	ReceivedBroadcasts 	0
scalar IntersectionExampleScenario.node[492].nic.mac1609_4 	SentPackets 	0
scalar IntersectionExampleScenario.node[492].nic.mac1609_4 	SNIRLostPackets 	0
scalar IntersectionExampleScenario.node[492].nic.mac1609_4 	RXTXLostPackets 	0
scalar IntersectionExampleScenario.node[492].nic.mac1609_4 	TotalLostPackets 	0
scalar IntersectionExampleScenario.node[492].nic.mac1609_4 	DroppedPacketsInMac 	0
scalar IntersectionExampleScenario.node[492].nic.mac1609_4 	TooLittleTime 	0
scalar IntersectionExampleScenario.node[492].nic.mac1609_4 	TimesIntoBackoff 	0
scalar IntersectionExampleScenario.node[492].nic.mac1609_4 	SlotsBackoff 	0
scalar IntersectionExampleScenario.node[492].nic.mac1609_4 	NumInternalContention 	0
scalar IntersectionExampleScenario.node[492].nic.mac1609_4 	totalBusyTime 	0
scalar IntersectionExampleScenario.node[492].veinsmobility 	startTime 	1799.75
scalar IntersectionExampleScenario.node[492].veinsmobility 	totalTime 	0.25
scalar IntersectionExampleScenario.node[492].veinsmobility 	stopTime 	1800
scalar IntersectionExampleScenario.node[492].veinsmobility 	minSpeed 	5.6500000953674
scalar IntersectionExampleScenario.node[492].veinsmobility 	maxSpeed 	5.6500000953674
scalar IntersectionExampleScenario.node[492].veinsmobility 	totalDistance 	1.3343734741211
scalar IntersectionExampleScenario.node[492].veinsmobility 	totalCO2Emission 	0
