file 16644753 1591479115                                        
version 2
run nodebug-18-20200606-17:29:18-10964
attr configname nodebug
attr datetime 20200606-17:29:18
attr experiment nodebug
attr inifile omnetpp.ini
attr iterationvars ""
attr iterationvars2 $repetition=18
attr measurement ""
attr network "\"org.car2x.veins.modules.application.ExtTraCIScenarioManagerLaunchd.IntersectionExampleScenario\""
attr processid 10964
attr repetition 18
attr replication #18
attr resultdir results
attr runnumber 18
attr seedset 18
param **.coreDebug false
param **.debug false
param *.**.nic.mac1609_4.bitrate 18Mbps
param *.**.nic.mac1609_4.txPower 20mW
param *.**.nic.mac1609_4.useServiceChannel false
param *.**.nic.phy80211p.analogueModels "xmldoc(\"config.xml\")"
param *.**.nic.phy80211p.decider "xmldoc(\"config.xml\")"
param *.**.nic.phy80211p.sensitivity -89dBm
param *.**.nic.phy80211p.thermalNoise -110dBm
param *.**.nic.phy80211p.usePropagationDelay true
param *.**.nic.phy80211p.useThermalNoise true
param *.annotations.draw false
param *.connectionManager.alpha 2.0
param *.connectionManager.carrierFrequency "5.890e9 Hz"
param *.connectionManager.pMax 20mW
param *.connectionManager.sat -89dBm
param *.connectionManager.sendDirect true
param *.manager.autoShutdown true
param *.manager.host "\"localhost\""
param *.manager.launchConfig "xmldoc(\"paramics.launchd.xml\")"
param *.manager.margin 25
param *.manager.moduleDisplayString "\"\""
param *.manager.moduleName "\"node\""
param *.manager.moduleType "\"org.car2x.veins.nodes.Car\""
param *.manager.port 9999
param *.manager.updateInterval 250ms
param *.node[*0].veinsmobility.accidentCount 0
param *.node[*0].veinsmobility.accidentDuration 30s
param *.node[*0].veinsmobility.accidentStart 75s
param *.node[*].appl.LiderSelectZoneRadio 55.0
param *.node[*].appl.ShareDataZoneRadio 110.0
param *.node[*].appl.TiempoSemaforo 30.0
param *.node[*].appl.beaconInterval 1s
param *.node[*].appl.beaconPriority 3
param *.node[*].appl.dataOnSch false
param *.node[*].appl.dataPriority 2
param *.node[*].appl.debug false
param *.node[*].appl.headerLength "256 bit"
param *.node[*].appl.maxOffset 0.005s
param *.node[*].appl.sendBeacons false
param *.node[*].appl.sendData true
param *.node[*].applType "\"Dummy\""
param *.node[*].mobilityType "\"TraCIMobility\""
param *.node[*].mobilityType.debug true
param *.node[*].veinsmobility.x 0
param *.node[*].veinsmobility.y 0
param *.node[*].veinsmobility.z 1.895
param *.node[*].veinsmobilityType "\"org.car2x.veins.modules.mobility.traci.TraCIMobility\""
param *.node[*].veinsmobilityType.debug true
param *.playgroundSizeX 8500m
param *.playgroundSizeY 8500m
param *.playgroundSizeZ 50m
param *.world.use2D false
param *.world.useTorus false

vector 28918  IntersectionExampleScenario.manager  vehiclesinsim  ETV
attr type  int
vector 28919  IntersectionExampleScenario.manager  realtime  ETV
attr type  int
attr unit  s
vector 28922  IntersectionExampleScenario.node[0].veinsmobility  posx  ETV
vector 28923  IntersectionExampleScenario.node[0].veinsmobility  posy  ETV
vector 28924  IntersectionExampleScenario.node[0].veinsmobility  speed  ETV
vector 28925  IntersectionExampleScenario.node[0].veinsmobility  acceleration  ETV
vector 28926  IntersectionExampleScenario.node[0].veinsmobility  co2emission  ETV
vector 28929  IntersectionExampleScenario.node[1].veinsmobility  posx  ETV
vector 28930  IntersectionExampleScenario.node[1].veinsmobility  posy  ETV
vector 28936  IntersectionExampleScenario.node[2].veinsmobility  posx  ETV
vector 28937  IntersectionExampleScenario.node[2].veinsmobility  posy  ETV
vector 28931  IntersectionExampleScenario.node[1].veinsmobility  speed  ETV
vector 28932  IntersectionExampleScenario.node[1].veinsmobility  acceleration  ETV
vector 28933  IntersectionExampleScenario.node[1].veinsmobility  co2emission  ETV
vector 28938  IntersectionExampleScenario.node[2].veinsmobility  speed  ETV
vector 28939  IntersectionExampleScenario.node[2].veinsmobility  acceleration  ETV
vector 28940  IntersectionExampleScenario.node[2].veinsmobility  co2emission  ETV
vector 28943  IntersectionExampleScenario.node[3].veinsmobility  posx  ETV
vector 28944  IntersectionExampleScenario.node[3].veinsmobility  posy  ETV
vector 28945  IntersectionExampleScenario.node[3].veinsmobility  speed  ETV
vector 28946  IntersectionExampleScenario.node[3].veinsmobility  acceleration  ETV
vector 28947  IntersectionExampleScenario.node[3].veinsmobility  co2emission  ETV
vector 28950  IntersectionExampleScenario.node[4].veinsmobility  posx  ETV
vector 28951  IntersectionExampleScenario.node[4].veinsmobility  posy  ETV
vector 28957  IntersectionExampleScenario.node[5].veinsmobility  posx  ETV
vector 28958  IntersectionExampleScenario.node[5].veinsmobility  posy  ETV
vector 28952  IntersectionExampleScenario.node[4].veinsmobility  speed  ETV
vector 28959  IntersectionExampleScenario.node[5].veinsmobility  speed  ETV
vector 28953  IntersectionExampleScenario.node[4].veinsmobility  acceleration  ETV
vector 28954  IntersectionExampleScenario.node[4].veinsmobility  co2emission  ETV
vector 28960  IntersectionExampleScenario.node[5].veinsmobility  acceleration  ETV
vector 28961  IntersectionExampleScenario.node[5].veinsmobility  co2emission  ETV
vector 28964  IntersectionExampleScenario.node[6].veinsmobility  posx  ETV
vector 28965  IntersectionExampleScenario.node[6].veinsmobility  posy  ETV
vector 28966  IntersectionExampleScenario.node[6].veinsmobility  speed  ETV
vector 28967  IntersectionExampleScenario.node[6].veinsmobility  acceleration  ETV
vector 28968  IntersectionExampleScenario.node[6].veinsmobility  co2emission  ETV
vector 28971  IntersectionExampleScenario.node[7].veinsmobility  posx  ETV
vector 28972  IntersectionExampleScenario.node[7].veinsmobility  posy  ETV
vector 28973  IntersectionExampleScenario.node[7].veinsmobility  speed  ETV
vector 28974  IntersectionExampleScenario.node[7].veinsmobility  acceleration  ETV
vector 28975  IntersectionExampleScenario.node[7].veinsmobility  co2emission  ETV
28926	6104 5118 13 1206 2 44 169 0.973 11.810082123732 549.49649147058 3026.5125220216
28925	11222 4761 13 1206 2 44 169 -7.2641463279724 4 39.699392318726 483.29100888435
28924	15983 5026 10 1206 1.75 44 170 0 15.875 2180.8751922846 31208.170008883
28923	21009 5367 7 1206 1.5 44 171 236.12365722656 483.14999389648 74555.788085938 33449016.148315
28922	26376 5405 7 1206 1.5 44 171 184.17810058594 483.36395263672 68791.266967773 29456731.095213
28933	31781 4788 61 1228 5.5 44.5 157 0.973 11.990504229548 516.55774624088 2975.64587614
28932	36569 4548 61 1228 5.5 44.5 157 -4.5 2.5 40.038900375366 279.01606903528
28931	41117 4796 54 1228 5.25 44.5 158 5.6500000953674 16.125 2255.8386507034 33060.470698826
28930	45913 5080 49 1228 5 44.5 159 483.14999389648 483.14999389648 76820.849029541 37115992.739745
28929	50993 5042 49 1228 5 44.5 159 174.53436279297 732.91296386719 70445.871322632 35478128.837856
vector 28978  IntersectionExampleScenario.node[8].veinsmobility  posx  ETV
vector 28979  IntersectionExampleScenario.node[8].veinsmobility  posy  ETV
vector 28980  IntersectionExampleScenario.node[8].veinsmobility  speed  ETV
vector 28981  IntersectionExampleScenario.node[8].veinsmobility  acceleration  ETV
vector 28982  IntersectionExampleScenario.node[8].veinsmobility  co2emission  ETV
vector 28985  IntersectionExampleScenario.node[9].veinsmobility  posx  ETV
vector 28986  IntersectionExampleScenario.node[9].veinsmobility  posy  ETV
vector 28987  IntersectionExampleScenario.node[9].veinsmobility  speed  ETV
vector 28988  IntersectionExampleScenario.node[9].veinsmobility  acceleration  ETV
vector 28989  IntersectionExampleScenario.node[9].veinsmobility  co2emission  ETV
vector 28992  IntersectionExampleScenario.node[10].veinsmobility  posx  ETV
vector 28993  IntersectionExampleScenario.node[10].veinsmobility  posy  ETV
vector 28999  IntersectionExampleScenario.node[11].veinsmobility  posx  ETV
vector 29000  IntersectionExampleScenario.node[11].veinsmobility  posy  ETV
vector 28994  IntersectionExampleScenario.node[10].veinsmobility  speed  ETV
vector 28995  IntersectionExampleScenario.node[10].veinsmobility  acceleration  ETV
vector 28996  IntersectionExampleScenario.node[10].veinsmobility  co2emission  ETV
vector 29001  IntersectionExampleScenario.node[11].veinsmobility  speed  ETV
vector 29002  IntersectionExampleScenario.node[11].veinsmobility  acceleration  ETV
vector 29003  IntersectionExampleScenario.node[11].veinsmobility  co2emission  ETV
vector 29006  IntersectionExampleScenario.node[12].veinsmobility  posx  ETV
vector 29007  IntersectionExampleScenario.node[12].veinsmobility  posy  ETV
vector 29008  IntersectionExampleScenario.node[12].veinsmobility  speed  ETV
vector 29009  IntersectionExampleScenario.node[12].veinsmobility  acceleration  ETV
vector 29010  IntersectionExampleScenario.node[12].veinsmobility  co2emission  ETV
28940	58030 6006 68 2002 5.75 56 202 0.973 11.200708441096 554.95785990331 2673.7801260994
28939	64036 5416 68 2002 5.75 56 202 -7.5428676605225 4 35.964826583862 464.89642763928
28938	69452 5840 61 2002 5.5 56 203 0 15.02499961853 2209.8560891151 30237.050045116
28937	75292 6562 54 2002 5.25 56 204 483.14999389648 785.82187652588 113684.04839325 65335301.616545
28936	81854 6560 54 2002 5.25 56 204 483.14999389648 735.53648376465 107456.27308655 57711466.563545
vector 29013  IntersectionExampleScenario.node[13].veinsmobility  posx  ETV
vector 29014  IntersectionExampleScenario.node[13].veinsmobility  posy  ETV
vector 29015  IntersectionExampleScenario.node[13].veinsmobility  speed  ETV
vector 29016  IntersectionExampleScenario.node[13].veinsmobility  acceleration  ETV
vector 29017  IntersectionExampleScenario.node[13].veinsmobility  co2emission  ETV
vector 29020  IntersectionExampleScenario.node[14].veinsmobility  posx  ETV
vector 29021  IntersectionExampleScenario.node[14].veinsmobility  posy  ETV
vector 29022  IntersectionExampleScenario.node[14].veinsmobility  speed  ETV
vector 29023  IntersectionExampleScenario.node[14].veinsmobility  acceleration  ETV
vector 29024  IntersectionExampleScenario.node[14].veinsmobility  co2emission  ETV
vector 29027  IntersectionExampleScenario.node[15].veinsmobility  posx  ETV
vector 29028  IntersectionExampleScenario.node[15].veinsmobility  posy  ETV
vector 29029  IntersectionExampleScenario.node[15].veinsmobility  speed  ETV
vector 29030  IntersectionExampleScenario.node[15].veinsmobility  acceleration  ETV
vector 29031  IntersectionExampleScenario.node[15].veinsmobility  co2emission  ETV
28947	89617 5894 731 3741 30.5 79 195 0.973 11.648172402475 568.77945142352 2941.3119921424
28946	95511 5295 731 3741 30.5 79 195 -6.8118047714233 4 38.850629806519 469.9152716302
28945	100806 5733 726 3741 30.25 79 196 0 15.64999961853 2191.7910797596 31149.919193503
28944	106539 6456 721 3741 30 79 197 483.14999389648 735.29400634766 103659.2563324 55604361.413708
28943	112995 6437 721 3741 30 79 197 184.17810058594 486.85000610352 81206.350036621 35405272.125231
28961	119432 5577 844 3829 35.75 81 182 0.973 11.200708441096 516.94076592914 2599.7133623844
28960	125009 5617 844 3829 35.75 81 182 -2.6003379821777 2.5000019073486 35.795072555542 284.28315338698
28959	130626 5836 835 3829 35.5 81 183 2.6505029201508 15.02499961853 2214.7769901752 29372.078708042
28958	136462 6055 826 3829 35.25 81 184 483.14999389648 483.14999389648 88899.598876953 42951840.6548
28957	142517 6026 826 3829 35.25 81 184 184.17810058594 732.98286437988 82686.923171997 41425306.712336
28989	148543 5242 1443 4171 48.75 89.5 164 0.973 11.200708441096 489.18991891622 2474.8953455387
28988	153785 4680 1443 4171 48.75 89.5 164 -3.4310665130615 2.5 35.795072555542 256.38855581272
28987	158465 5152 1428 4171 48.5 89.5 165 5.6500000953674 15.02499961853 2178.6426405907 29893.988256713
28986	163617 5475 1413 4171 48.25 89.5 166 238.04205322266 483.14999389648 71761.217559814 31969554.090544
28985	169092 5460 1413 4171 48.25 89.5 166 184.17810058594 483.14999389648 66009.311065674 28025662.921782
28975	174552 6084 1019 4185 39.75 90 202 0.973 11.90022389248 586.85397800749 3112.6480638201
28974	180636 5517 1019 4185 39.75 90 202 -6.9388580322266 4 39.869146347046 486.92859168984
28973	186153 5904 1008 4185 39.5 90 203 0 16 2219.9751734734 32151.358126084
28972	192057 6705 996 4185 39.25 90 204 184.17810058594 735.07762145996 92664.0284729 46219988.810281
28971	198762 6731 996 4185 39.25 90 204 486.85000610352 486.85000610352 99317.401245117 48352677.40237
28954	205493 6557 844 4213 35.75 91 222 0.973 11.648172402475 598.09968388939 2877.8663186867
28953	212050 6410 844 4213 35.75 91 222 -7.7750473022461 4 38.641176223755 463.75737461041
28952	218460 6500 835 4213 35.5 91 223 0 15.64999961853 2214.4046244621 31066.853444786
28951	224960 7353 826 4213 35.25 91 224 236.18713378906 785.82187652588 115089.27256012 63320784.45666
28950	232313 7375 826 4213 35.25 91 224 483.14999389648 483.14999389648 108225.59863281 52289197.318887
28968	239688 7170 875 4269 36.5 93 227 0.973 11.438899879242 596.91897740567 2650.6779285951
28967	246858 7172 875 4269 36.5 93 227 -4.5 2.5000009536743 37.15309715271 403.45476703341
28966	254030 7483 864 4269 36.25 93 228 0 15.358273506165 2303.1145320144 31518.2199976
28965	261513 7519 853 4269 36 93 229 237.89880371094 808.82032012939 120379.63295746 68052018.473774
28964	269032 7541 853 4269 36 93 229 483.14999389648 483.14999389648 110641.34860229 53456366.901897
29003	276573 5297 1573 4276 50.75 93.25 171 0.973 11.810082123732 559.03912045161 3221.1137661898
29002	281870 5082 1573 4276 50.75 93.25 171 -2.8696956634521 2.5000019073486 39.869146347046 344.43010011516
29001	286952 5348 1554 4276 50.5 93.25 172 5.6500000953674 15.875 2193.2256960869 30100.328104773
29000	292300 5685 1535 4276 50.25 93.25 173 184.17810058594 483.17468261719 69201.204467773 29425460.960015
28999	297985 5706 1535 4276 50.25 93.25 173 486.85000610352 735.06539916992 92348.814407349 50253724.732863
28982	303691 5685 1309 4297 46.25 94 192 0.94705856087655 12.099024792222 597.27119938096 3398.9983511812
28981	309376 6070 1309 4297 46.25 94 192 -2.1698951721191 2.5 42.99049949646 333.60929818
28980	315446 6343 1296 4297 46 94 193 1.9332242012024 16.753910064697 2206.0881619453 30172.338919704
28979	321789 6393 1283 4297 45.75 94 194 483.14999389648 785.82187652588 109139.39914703 63202464.407255
28978	328182 6391 1283 4297 45.75 94 194 483.14999389648 732.64378356934 101739.57478333 54358089.941503
vector 29034  IntersectionExampleScenario.node[16].veinsmobility  posx  ETV
vector 29035  IntersectionExampleScenario.node[16].veinsmobility  posy  ETV
vector 29036  IntersectionExampleScenario.node[16].veinsmobility  speed  ETV
vector 29037  IntersectionExampleScenario.node[16].veinsmobility  acceleration  ETV
vector 29038  IntersectionExampleScenario.node[16].veinsmobility  co2emission  ETV
vector 29041  IntersectionExampleScenario.node[17].veinsmobility  posx  ETV
vector 29042  IntersectionExampleScenario.node[17].veinsmobility  posy  ETV
vector 29048  IntersectionExampleScenario.node[18].veinsmobility  posx  ETV
vector 29049  IntersectionExampleScenario.node[18].veinsmobility  posy  ETV
vector 29043  IntersectionExampleScenario.node[17].veinsmobility  speed  ETV
vector 29044  IntersectionExampleScenario.node[17].veinsmobility  acceleration  ETV
vector 29045  IntersectionExampleScenario.node[17].veinsmobility  co2emission  ETV
vector 29050  IntersectionExampleScenario.node[18].veinsmobility  speed  ETV
vector 29051  IntersectionExampleScenario.node[18].veinsmobility  acceleration  ETV
vector 29052  IntersectionExampleScenario.node[18].veinsmobility  co2emission  ETV
28996	335776 6207 1554 4604 50.5 102.5 209 0.94600815583079 12.26218747632 604.19268046719 3342.6751114919
28995	341983 5704 1554 4604 50.5 102.5 209 -8.3547468185425 4 41.566686630249 518.06614665604
28994	347687 5910 1535 4604 50.25 102.5 210 0 16.5 2173.0886220932 31877.590970881
28993	353597 6896 1518 4604 50 102.5 211 486.85000610352 731.94525146484 110446.71296692 58785965.165672
28992	360493 6968 1518 4604 50 102.5 211 486.63604736328 785.82187652588 116810.48253632 66589556.364306
vector 29055  IntersectionExampleScenario.node[19].veinsmobility  posx  ETV
vector 29056  IntersectionExampleScenario.node[19].veinsmobility  posy  ETV
vector 29057  IntersectionExampleScenario.node[19].veinsmobility  speed  ETV
vector 29058  IntersectionExampleScenario.node[19].veinsmobility  acceleration  ETV
vector 29059  IntersectionExampleScenario.node[19].veinsmobility  co2emission  ETV
29010	367862 6477 1729 4713 52.75 104.75 209 0.973 11.648172402475 574.27703291286 2919.7385027238
29009	374339 6574 1729 4713 52.75 104.75 209 -4.4855461120605 2.5000009536743 37.662351608276 393.05401840373
29008	380913 6721 1708 4713 52.5 104.75 210 0 15.64999961853 2275.2146297675 31251.444553324
29007	387634 6974 1687 4713 52.25 104.75 211 236.56353759766 486.85000610352 94212.216308594 43142878.247644
29006	394608 6969 1687 4713 52.25 104.75 211 483.13589477539 802.70781707764 118820.84999847 69138488.916036
vector 29062  IntersectionExampleScenario.node[20].veinsmobility  posx  ETV
vector 29063  IntersectionExampleScenario.node[20].veinsmobility  posy  ETV
vector 29064  IntersectionExampleScenario.node[20].veinsmobility  speed  ETV
vector 29065  IntersectionExampleScenario.node[20].veinsmobility  acceleration  ETV
vector 29066  IntersectionExampleScenario.node[20].veinsmobility  co2emission  ETV
vector 29069  IntersectionExampleScenario.node[21].veinsmobility  posx  ETV
vector 29070  IntersectionExampleScenario.node[21].veinsmobility  posy  ETV
vector 29076  IntersectionExampleScenario.node[22].veinsmobility  posx  ETV
vector 29077  IntersectionExampleScenario.node[22].veinsmobility  posy  ETV
vector 29071  IntersectionExampleScenario.node[21].veinsmobility  speed  ETV
vector 29072  IntersectionExampleScenario.node[21].veinsmobility  acceleration  ETV
vector 29073  IntersectionExampleScenario.node[21].veinsmobility  co2emission  ETV
vector 29078  IntersectionExampleScenario.node[22].veinsmobility  speed  ETV
vector 29079  IntersectionExampleScenario.node[22].veinsmobility  acceleration  ETV
vector 29080  IntersectionExampleScenario.node[22].veinsmobility  co2emission  ETV
vector 29083  IntersectionExampleScenario.node[23].veinsmobility  posx  ETV
vector 29084  IntersectionExampleScenario.node[23].veinsmobility  posy  ETV
vector 29085  IntersectionExampleScenario.node[23].veinsmobility  speed  ETV
vector 29086  IntersectionExampleScenario.node[23].veinsmobility  acceleration  ETV
vector 29087  IntersectionExampleScenario.node[23].veinsmobility  co2emission  ETV
vector 29090  IntersectionExampleScenario.node[24].veinsmobility  posx  ETV
vector 29091  IntersectionExampleScenario.node[24].veinsmobility  posy  ETV
vector 29092  IntersectionExampleScenario.node[24].veinsmobility  speed  ETV
vector 29093  IntersectionExampleScenario.node[24].veinsmobility  acceleration  ETV
vector 29094  IntersectionExampleScenario.node[24].veinsmobility  co2emission  ETV
29024	403582 5641 3197 5399 71 115 177 0.973 11.200708441096 525.91622153575 2621.2630083284
29023	409223 5178 3197 5399 71 115 177 -6.8669724464417 4 35.625318527222 445.88497074784
29022	414401 5571 3176 5399 70.75 115 178 0 15.02499961853 2184.6978753805 29568.088125493
29021	419972 5896 3155 5399 70.5 115 179 234.9931640625 483.14999389648 77809.536529541 34834971.692707
29020	425868 5948 3155 5399 70.5 115 179 184.17810058594 483.36395263672 72097.956726074 30881306.064215
vector 29097  IntersectionExampleScenario.node[25].veinsmobility  posx  ETV
vector 29098  IntersectionExampleScenario.node[25].veinsmobility  posy  ETV
vector 29099  IntersectionExampleScenario.node[25].veinsmobility  speed  ETV
vector 29100  IntersectionExampleScenario.node[25].veinsmobility  acceleration  ETV
vector 29101  IntersectionExampleScenario.node[25].veinsmobility  co2emission  ETV
vector 29104  IntersectionExampleScenario.node[26].veinsmobility  posx  ETV
vector 29105  IntersectionExampleScenario.node[26].veinsmobility  posy  ETV
vector 29106  IntersectionExampleScenario.node[26].veinsmobility  speed  ETV
vector 29107  IntersectionExampleScenario.node[26].veinsmobility  acceleration  ETV
vector 29108  IntersectionExampleScenario.node[26].veinsmobility  co2emission  ETV
29017	432618 7012 2794 6214 65.75 125 238 0.973 11.90022389248 621.37362927076 3191.4285346067
29016	439630 6600 2794 6214 65.75 125 238 -10.115790367126 4 39.699392318726 568.33538459402
29015	446230 6633 2775 6214 65.5 125 239 0 16 2203.1105074883 31835.445067215
29014	452863 8015 2756 6214 65.25 125 240 483.14999389648 785.82187652588 131220.34529877 73797078.481863
29013	460878 8019 2756 6214 65.25 125 240 483.14999389648 733.64456176758 124215.04714966 65383012.68211
vector 29111  IntersectionExampleScenario.node[27].veinsmobility  posx  ETV
vector 29112  IntersectionExampleScenario.node[27].veinsmobility  posy  ETV
vector 29113  IntersectionExampleScenario.node[27].veinsmobility  speed  ETV
vector 29118  IntersectionExampleScenario.node[28].veinsmobility  posx  ETV
vector 29119  IntersectionExampleScenario.node[28].veinsmobility  posy  ETV
vector 29114  IntersectionExampleScenario.node[27].veinsmobility  acceleration  ETV
vector 29115  IntersectionExampleScenario.node[27].veinsmobility  co2emission  ETV
vector 29120  IntersectionExampleScenario.node[28].veinsmobility  speed  ETV
vector 29121  IntersectionExampleScenario.node[28].veinsmobility  acceleration  ETV
vector 29122  IntersectionExampleScenario.node[28].veinsmobility  co2emission  ETV
vector 29125  IntersectionExampleScenario.node[29].veinsmobility  posx  ETV
vector 29126  IntersectionExampleScenario.node[29].veinsmobility  posy  ETV
vector 29127  IntersectionExampleScenario.node[29].veinsmobility  speed  ETV
vector 29128  IntersectionExampleScenario.node[29].veinsmobility  acceleration  ETV
vector 29129  IntersectionExampleScenario.node[29].veinsmobility  co2emission  ETV
vector 29132  IntersectionExampleScenario.node[30].veinsmobility  posx  ETV
vector 29133  IntersectionExampleScenario.node[30].veinsmobility  posy  ETV
vector 29134  IntersectionExampleScenario.node[30].veinsmobility  speed  ETV
vector 29135  IntersectionExampleScenario.node[30].veinsmobility  acceleration  ETV
vector 29136  IntersectionExampleScenario.node[30].veinsmobility  co2emission  ETV
29038	470501 5176 4378 7187 96.75 135.75 157 0.973 11.648172402475 488.40850861431 2625.2570279354
29037	475677 4737 4378 7187 96.75 135.75 157 -3.1246910095215 2.5 38.171613693237 230.31292596212
29036	480414 5072 4369 7187 96.5 135.75 158 5.6500000953674 15.64999961853 2200.5340795517 31558.176447627
29035	485486 5364 4360 7187 96.25 135.75 159 184.17810058594 486.86709594727 63265.421966553 26946329.818109
29034	490850 5386 4360 7187 96.25 135.75 159 238.59423828125 486.85000610352 69094.785217285 30966076.994286
vector 29139  IntersectionExampleScenario.node[31].veinsmobility  posx  ETV
vector 29140  IntersectionExampleScenario.node[31].veinsmobility  posy  ETV
vector 29141  IntersectionExampleScenario.node[31].veinsmobility  speed  ETV
29031	496468 7391 3525 7388 75.25 137.75 251 0.973 12.099024792222 649.23129972078 3232.3771229599
29030	503859 6644 3525 7388 75.25 137.75 251 -42.463409423828 4 40.887662887573 2146.7926664799
29029	510503 6874 3508 7388 75 137.75 252 0 16.27499961853 2218.038646698 33157.618726872
29028	517377 8502 3490 7388 74.75 137.75 253 486.85000610352 486.85000610352 123173.05154419 59966800.896077
29027	525879 8491 3490 7388 74.75 137.75 253 236.08239746094 785.82187652588 129639.42636871 70498028.625555
vector 29142  IntersectionExampleScenario.node[31].veinsmobility  acceleration  ETV
vector 29143  IntersectionExampleScenario.node[31].veinsmobility  co2emission  ETV
vector 29146  IntersectionExampleScenario.node[32].veinsmobility  posx  ETV
vector 29147  IntersectionExampleScenario.node[32].veinsmobility  posy  ETV
vector 29148  IntersectionExampleScenario.node[32].veinsmobility  speed  ETV
vector 29149  IntersectionExampleScenario.node[32].veinsmobility  acceleration  ETV
vector 29150  IntersectionExampleScenario.node[32].veinsmobility  co2emission  ETV
vector 29153  IntersectionExampleScenario.node[33].veinsmobility  posx  ETV
vector 29154  IntersectionExampleScenario.node[33].veinsmobility  posy  ETV
vector 29155  IntersectionExampleScenario.node[33].veinsmobility  speed  ETV
vector 29156  IntersectionExampleScenario.node[33].veinsmobility  acceleration  ETV
vector 29157  IntersectionExampleScenario.node[33].veinsmobility  co2emission  ETV
vector 29160  IntersectionExampleScenario.node[34].veinsmobility  posx  ETV
vector 29161  IntersectionExampleScenario.node[34].veinsmobility  posy  ETV
vector 29162  IntersectionExampleScenario.node[34].veinsmobility  speed  ETV
vector 29163  IntersectionExampleScenario.node[34].veinsmobility  acceleration  ETV
vector 29164  IntersectionExampleScenario.node[34].veinsmobility  co2emission  ETV
29045	535742 6269 4461 8491 99.25 149.25 201 0.973 11.648172402475 568.72441258103 2910.1340537118
29044	542011 5740 4461 8491 99.25 149.25 201 -7.4922709465027 4 38.171613693237 479.41813793154
29043	547751 6068 4450 8491 99 149.25 202 0 15.64999961853 2175.1208316088 30519.903061611
29042	553819 6822 4441 8491 98.75 149.25 203 237.46997070312 483.14999389648 89910.662353516 40827189.255757
29041	560641 6869 4441 8491 98.75 149.25 203 184.17810058594 483.36395263672 83728.548431396 36455291.335092
29052	567510 6858 4472 8727 99.5 152.25 212 0.973 10.916047529558 569.22724053713 2645.0285732867
29051	574368 6854 4472 8727 99.5 152.25 212 -4.5 2.5 35.964826583862 395.08464465508
29050	581222 7007 4461 8727 99.25 152.25 213 0 15.193534851074 2282.4666299485 30471.077310374
29049	588229 7265 4450 8727 99 152.25 214 236.32739257812 483.14999389648 94863.808197021 43113179.964083
29048	595494 7243 4450 8727 99 152.25 214 159.76721191406 483.14999389648 85774.906951904 36797391.611885
29059	602737 6293 4674 8812 104 153.5 199 0.973 11.90022389248 580.36970372407 2991.9405417842
29058	609030 6261 4674 8812 104 153.5 199 -3.7653286457062 2.5 39.699392318726 376.44263509016
29057	615291 6513 4661 8812 103.75 153.5 200 0 16 2275.8034411967 31261.711610715
29056	621804 6830 4648 8812 103.5 153.5 201 483.14999389648 733.29162597656 105354.14602661 56256220.85815
29055	628634 6823 4648 8812 103.5 153.5 201 167.16937255859 486.85000610352 80914.845733643 34713159.97305
vector 29167  IntersectionExampleScenario.node[35].veinsmobility  posx  ETV
vector 29168  IntersectionExampleScenario.node[35].veinsmobility  posy  ETV
vector 29169  IntersectionExampleScenario.node[35].veinsmobility  speed  ETV
vector 29170  IntersectionExampleScenario.node[35].veinsmobility  acceleration  ETV
vector 29171  IntersectionExampleScenario.node[35].veinsmobility  co2emission  ETV
29094	635858 5291 5252 8901 113.25 154.75 167 0.96333723109819 12.099024792222 554.40261808979 3378.0103129706
29093	641149 5038 5252 8901 113.25 154.75 167 -4.5 2.5 40.208654403687 321.71610102283
29092	646187 5470 5231 8901 113 154.75 168 5.6500000953674 16.27499961853 2216.5843267441 30754.999820691
29091	651657 5747 5210 8901 112.75 154.75 169 483.14999389648 483.14999389648 81652.348968506 39450331.905767
29090	657404 5716 5210 8901 112.75 154.75 169 184.17810058594 733.33264160156 75191.296401978 37532830.667833
29066	663120 6468 4873 9300 107.75 160 210 0.973 11.90022389248 591.73724356163 3090.008617711
29065	669588 5965 4873 9300 107.75 160 210 -7.2641291618347 4 39.699392318726 485.24806203163
29064	675553 6243 4858 9300 107.5 160 211 0 16 2204.2747706175 31714.977261645
29063	681796 7202 4843 9300 107.25 160 212 483.14999389648 785.82187652588 117267.70835114 66842008.324061
29062	688998 7206 4843 9300 107.25 160 212 483.14999389648 733.64456176758 110686.84732056 58846863.01725
29073	696204 6304 4983 9300 109.5 160 203 0.973 11.90022389248 586.52299561788 3089.6560760688
29072	702508 5735 4983 9300 109.5 160 203 -6.9388580322266 4 39.869146347046 483.42859168984
29071	708243 6099 4965 9300 109.25 160 204 0 16 2206.8656001091 31827.855714461
29070	714342 6945 4948 9300 109 160 205 184.17810058594 486.85000610352 85091.356414795 37272785.566537
29069	721287 6963 4948 9300 109 160 205 235.83721923828 486.85000610352 91532.215820312 41918254.367252
29080	728250 6819 5000 9452 109.75 162 210 0.973 11.111250339518 565.91034290046 2621.9680152482
29079	735069 6567 5000 9452 109.75 162 210 -4.5 2.5 35.625318527222 402.11298177219
29078	741636 7044 4983 9452 109.5 162 211 0 14.899494171143 2315.7316431422 31072.031235736
29077	748680 7187 4965 9452 109.25 162 212 159.76721191406 734.27429199219 93415.180847168 46192704.929744
29076	755867 7208 4965 9452 109.25 162 212 486.85000610352 486.85000610352 103212.20129395 50248860.829914
29087	763075 6590 5191 9574 112.5 163.75 206 0.973 11.90022389248 611.23727100076 3135.6523918679
29086	769665 6373 5191 9574 112.5 163.75 206 -4.5 2.5000019073486 39.699392318726 492.80574289732
29085	776038 6754 5172 9574 112.25 163.75 207 0 16 2316.9938032962 31942.425333187
29084	782792 7055 5153 9574 112 163.75 208 157.15240478516 486.85000610352 83275.812316895 35674610.125679
29083	789847 7069 5153 9574 112 163.75 208 236.36169433594 486.85000610352 92999.993804932 42631768.396597
29108	796916 5451 6172 9761 124.5 166.5 169 0.973 11.810082123732 600.77995059203 3705.0906526139
29107	802367 5193 6172 9761 124.5 166.5 169 -30.972372055054 4 39.529638290405 1416.6721487006
29106	807560 5387 6151 9761 124.25 166.5 170 0 15.875 2174.344689846 30788.763544296
29105	812947 5805 6130 9761 124 166.5 171 486.76226806641 785.82187652588 97280.873542786 57114911.129353
29104	818752 5795 6130 9761 124 166.5 171 237.88537597656 483.14999389648 74651.689056396 33517070.194613
29101	824547 5833 5954 9862 121.75 168 186 0.973 12.099024792222 591.35994189333 3372.7282304915
29100	830380 5925 5954 9862 121.75 168 186 -4.5 2.5 40.887662887573 436.31495125979
29099	836305 6335 5933 9862 121.5 168 187 3.3904447555542 16.27499961853 2200.0137619972 29508.35203479
29098	842640 6368 5912 9862 121.25 168 188 184.17810058594 486.87469482422 76336.847473145 32826260.986565
29097	849008 6372 5912 9862 121.25 168 188 238.56872558594 486.85000610352 83472.344085693 38036642.098958
vector 29174  IntersectionExampleScenario.node[36].veinsmobility  posx  ETV
vector 29175  IntersectionExampleScenario.node[36].veinsmobility  posy  ETV
vector 29176  IntersectionExampleScenario.node[36].veinsmobility  speed  ETV
vector 29177  IntersectionExampleScenario.node[36].veinsmobility  acceleration  ETV
vector 29178  IntersectionExampleScenario.node[36].veinsmobility  co2emission  ETV
vector 29181  IntersectionExampleScenario.node[37].veinsmobility  posx  ETV
vector 29182  IntersectionExampleScenario.node[37].veinsmobility  posy  ETV
vector 29183  IntersectionExampleScenario.node[37].veinsmobility  speed  ETV
vector 29184  IntersectionExampleScenario.node[37].veinsmobility  acceleration  ETV
vector 29185  IntersectionExampleScenario.node[37].veinsmobility  co2emission  ETV
29150	856182 5231 7566 10398 139.5 178.5 157 0.973 11.648172402475 489.93848290835 2630.9394071346
29149	861413 4798 7566 10398 139.5 178.5 157 -3.2447280883789 2.5 38.341367721558 231.96890981277
29148	866211 5123 7540 10398 139.25 178.5 158 5.6500000953674 15.64999961853 2204.4889039993 31683.154117764
29147	871334 5424 7513 10398 139 178.5 159 237.70812988281 486.85000610352 69056.387145996 30939670.996897
29146	876758 5429 7513 10398 139 178.5 159 483.14999389648 785.82187652588 90941.229881287 53788234.538224
29115	882187 6705 6722 10581 131 184.5 215 0.973 11.200708441096 563.79113239763 2673.4991308564
29114	888892 6123 6722 10581 131 184.5 215 -8.6544361114502 4 35.795072555542 474.85014899822
29113	895015 6490 6699 10581 130.75 184.5 216 0 15.02499961853 2177.8262689114 29693.306448537
29112	901505 7432 6676 10581 130.5 184.5 217 483.14999389648 732.46864318848 113543.45672607 60509643.244134
29111	908937 7415 6676 10581 130.5 184.5 217 184.17810058594 486.85000610352 90272.423797607 39574987.367719
29136	916352 6433 7187 10644 135.75 186.75 205 0.973 11.200708441096 571.874671825 2769.6463325321
29135	922785 6083 7187 10644 135.75 186.75 205 -4.5 2.5 39.359884262085 460.17691480722
29134	928868 6348 7162 10644 135.5 186.75 206 0 15.549722671509 2074.0975022041 29096.064035705
29133	935216 7096 7137 10644 135.25 186.75 207 483.14999389648 732.98146057129 108286.99380493 57692705.558652
29132	942312 7089 7137 10644 135.25 186.75 207 216.986328125 486.89498901367 88201.051757812 39026120.693036
29122	949401 7510 6772 10714 131.5 189.25 232 0.973 10.562040798468 662.12027825421 3211.6193104788
29121	956911 7609 6772 10714 131.5 189.25 232 -4.5 2.5 37.32285118103 534.19887709711
29120	964520 7801 6747 10714 131.25 189.25 233 0 15.168601989746 2293.532950053 29766.343028753
29119	972321 8021 6722 10714 131 189.25 234 483.14999389648 731.93067932129 121515.21990967 64199376.205077
29118	980342 7997 6722 10714 131 189.25 234 160.43438720703 487.0534362793 93585.451843262 40057842.640749
29129	988339 7355 7038 10770 134.25 191.25 229 0.973 11.810082123732 633.56634902765 3068.9336913447
29128	995694 7402 7038 10770 134.25 191.25 229 -4.5 2.5 40.038900375366 481.89900335701
29127	1003096 7602 7013 10770 134 191.25 230 0 15.875 2293.4734352008 30334.811892492
29126	1010698 7935 6988 10770 133.75 191.25 231 235.45147705078 483.14999389648 103545.18936157 47459213.701201
29125	1018633 7924 6988 10770 133.75 191.25 231 157.95886230469 483.33236694336 91997.66607666 39125240.687057
29157	1026557 5958 8068 10798 144.5 192.25 192 0.94174448607336 12.099024792222 590.91959670844 3309.2961673173
29156	1032515 6279 8068 10798 144.5 192.25 192 -2.8842735290527 2.5 42.754949569702 344.97226339591
29155	1038794 6361 8043 10798 144.25 192.25 193 2.541624546051 16.39435005188 2209.6479873657 29873.026489078
29154	1045155 6669 8016 10798 144 192.25 194 483.14999389648 733.05923461914 101627.23770142 54225167.105358
29153	1051824 6651 8016 10798 144 192.25 194 184.17810058594 486.85000610352 78336.250579834 33404595.500281
29143	1058475 6841 7413 10861 138 194.5 227 0.973 12.353032912318 640.55093994064 3631.5430279178
29142	1065316 6478 7413 10861 138 194.5 227 -7.1618824005127 4 41.90619468689 527.54505784688
29141	1071794 6599 7388 10861 137.75 194.5 228 0 16.625 2202.2762908936 32618.745375295
29140	1078393 7862 7362 10861 137.5 194.5 229 184.17810058594 486.85000610352 96611.538360596 42761251.976421
29139	1086255 7873 7362 10861 137.5 194.5 229 237.05773925781 486.85000610352 103542.0022583 47861775.270039
29164	1094128 6415 8226 10903 146.25 196 200 0.973 11.200708441096 548.16084283077 2654.0842587923
29163	1100543 5993 8226 10903 146.25 196 200 -6.8690538406372 4 35.285810470581 455.469528318
29162	1106536 6275 8203 10903 146 196 201 0 15.02499961853 2201.1754693985 29834.37549227
29161	1112811 6961 8180 10903 145.75 196 202 483.14999389648 785.82187652588 112772.22310638 64936929.943319
29160	1119772 6956 8180 10903 145.75 196 202 483.14999389648 733.21536254883 106425.08105469 57157805.822567
vector 29188  IntersectionExampleScenario.node[38].veinsmobility  posx  ETV
vector 29189  IntersectionExampleScenario.node[38].veinsmobility  posy  ETV
vector 29195  IntersectionExampleScenario.node[39].veinsmobility  posx  ETV
vector 29196  IntersectionExampleScenario.node[39].veinsmobility  posy  ETV
vector 29190  IntersectionExampleScenario.node[38].veinsmobility  speed  ETV
vector 29191  IntersectionExampleScenario.node[38].veinsmobility  acceleration  ETV
vector 29192  IntersectionExampleScenario.node[38].veinsmobility  co2emission  ETV
vector 29197  IntersectionExampleScenario.node[39].veinsmobility  speed  ETV
vector 29198  IntersectionExampleScenario.node[39].veinsmobility  acceleration  ETV
vector 29199  IntersectionExampleScenario.node[39].veinsmobility  co2emission  ETV
vector 29202  IntersectionExampleScenario.node[40].veinsmobility  posx  ETV
vector 29203  IntersectionExampleScenario.node[40].veinsmobility  posy  ETV
vector 29204  IntersectionExampleScenario.node[40].veinsmobility  speed  ETV
vector 29205  IntersectionExampleScenario.node[40].veinsmobility  acceleration  ETV
vector 29206  IntersectionExampleScenario.node[40].veinsmobility  co2emission  ETV
vector 29209  IntersectionExampleScenario.node[41].veinsmobility  posx  ETV
vector 29210  IntersectionExampleScenario.node[41].veinsmobility  posy  ETV
vector 29211  IntersectionExampleScenario.node[41].veinsmobility  speed  ETV
vector 29212  IntersectionExampleScenario.node[41].veinsmobility  acceleration  ETV
vector 29213  IntersectionExampleScenario.node[41].veinsmobility  co2emission  ETV
vector 29216  IntersectionExampleScenario.node[42].veinsmobility  posx  ETV
vector 29217  IntersectionExampleScenario.node[42].veinsmobility  posy  ETV
vector 29218  IntersectionExampleScenario.node[42].veinsmobility  speed  ETV
vector 29219  IntersectionExampleScenario.node[42].veinsmobility  acceleration  ETV
vector 29220  IntersectionExampleScenario.node[42].veinsmobility  co2emission  ETV
vector 29223  IntersectionExampleScenario.node[43].veinsmobility  posx  ETV
vector 29224  IntersectionExampleScenario.node[43].veinsmobility  posy  ETV
vector 29225  IntersectionExampleScenario.node[43].veinsmobility  speed  ETV
vector 29226  IntersectionExampleScenario.node[43].veinsmobility  acceleration  ETV
vector 29227  IntersectionExampleScenario.node[43].veinsmobility  co2emission  ETV
vector 29230  IntersectionExampleScenario.node[44].veinsmobility  posx  ETV
vector 29231  IntersectionExampleScenario.node[44].veinsmobility  posy  ETV
vector 29232  IntersectionExampleScenario.node[44].veinsmobility  speed  ETV
vector 29233  IntersectionExampleScenario.node[44].veinsmobility  acceleration  ETV
vector 29234  IntersectionExampleScenario.node[44].veinsmobility  co2emission  ETV
vector 29237  IntersectionExampleScenario.node[45].veinsmobility  posx  ETV
vector 29238  IntersectionExampleScenario.node[45].veinsmobility  posy  ETV
vector 29239  IntersectionExampleScenario.node[45].veinsmobility  speed  ETV
vector 29244  IntersectionExampleScenario.node[46].veinsmobility  posx  ETV
vector 29245  IntersectionExampleScenario.node[46].veinsmobility  posy  ETV
vector 29240  IntersectionExampleScenario.node[45].veinsmobility  acceleration  ETV
vector 29241  IntersectionExampleScenario.node[45].veinsmobility  co2emission  ETV
vector 29246  IntersectionExampleScenario.node[46].veinsmobility  speed  ETV
vector 29247  IntersectionExampleScenario.node[46].veinsmobility  acceleration  ETV
vector 29248  IntersectionExampleScenario.node[46].veinsmobility  co2emission  ETV
29185	1130337 5192 10398 11717 178.5 216.25 152 0.973 12.099024792222 511.45495105884 2938.8279188599
29184	1135529 4493 10398 11717 178.5 216.25 152 -3.5300941467285 2.5 41.396924972534 261.77575690681
29183	1140022 5058 10387 11717 178.25 216.25 153 5.6500000953674 16.27499961853 2211.960146904 33120.898315581
29182	1145080 5369 10376 11717 178 216.25 154 235.97546386719 486.85000610352 66886.211730957 29975147.524405
29181	1150449 5384 10376 11717 178 216.25 154 483.14999389648 785.82187652588 88114.721855164 52152744.675182
29171	1155833 7572 8901 11869 154.75 218.25 255 0.973 12.099024792222 665.35419833138 3623.7420802075
29170	1163405 6761 8901 11869 154.75 218.25 255 -9.010814666748 4 41.396924972534 557.95448803658
29169	1170166 7373 8882 11869 154.5 218.25 256 0 16.27499961853 2177.5940051079 30383.975577534
29168	1177539 8925 8863 11869 154.25 218.25 257 483.14999389648 731.72024536133 132105.8349762 68974409.099998
29167	1186464 8903 8863 11869 154.25 218.25 257 184.17810058594 486.85000610352 109071.84893799 48356728.709614
vector 29251  IntersectionExampleScenario.node[47].veinsmobility  posx  ETV
vector 29252  IntersectionExampleScenario.node[47].veinsmobility  posy  ETV
vector 29253  IntersectionExampleScenario.node[47].veinsmobility  speed  ETV
vector 29254  IntersectionExampleScenario.node[47].veinsmobility  acceleration  ETV
vector 29255  IntersectionExampleScenario.node[47].veinsmobility  co2emission  ETV
vector 29258  IntersectionExampleScenario.node[48].veinsmobility  posx  ETV
vector 29259  IntersectionExampleScenario.node[48].veinsmobility  posy  ETV
vector 29260  IntersectionExampleScenario.node[48].veinsmobility  speed  ETV
vector 29261  IntersectionExampleScenario.node[48].veinsmobility  acceleration  ETV
vector 29262  IntersectionExampleScenario.node[48].veinsmobility  co2emission  ETV
vector 29265  IntersectionExampleScenario.node[49].veinsmobility  posx  ETV
vector 29266  IntersectionExampleScenario.node[49].veinsmobility  posy  ETV
vector 29267  IntersectionExampleScenario.node[49].veinsmobility  speed  ETV
vector 29268  IntersectionExampleScenario.node[49].veinsmobility  acceleration  ETV
vector 29269  IntersectionExampleScenario.node[49].veinsmobility  co2emission  ETV
29178	1196570 7132 10136 12882 172.75 230 230 0.973 12.099024792222 616.29192154727 3234.798014716
29177	1203702 6675 10136 12882 172.75 230 230 -7.8776445388794 4 40.038900375366 509.53881719338
29176	1210377 6856 10121 12882 172.5 230 231 0 16.27499961853 2208.051772356 31990.484749026
29175	1217233 8103 10106 12882 172.25 230 232 483.14999389648 785.82187652588 127152.53995514 71711910.369468
29174	1225336 8115 10106 12882 172.25 230 232 483.14999389648 734.68109130859 120375.82138062 63550411.364212
vector 29272  IntersectionExampleScenario.node[50].veinsmobility  posx  ETV
vector 29273  IntersectionExampleScenario.node[50].veinsmobility  posy  ETV
vector 29274  IntersectionExampleScenario.node[50].veinsmobility  speed  ETV
vector 29275  IntersectionExampleScenario.node[50].veinsmobility  acceleration  ETV
vector 29276  IntersectionExampleScenario.node[50].veinsmobility  co2emission  ETV
29192	1233852 5367 11021 13678 200 239 157 0.973 11.54047740176 464.515727801 2331.5343583805
29191	1239219 4856 11021 13678 200 239 157 -3.6199226379395 2.5 36.98334312439 185.99752778846
29190	1244075 5276 11010 13678 199.75 239 158 5.6500000953674 15.5 2220.1633729935 31769.099536895
29189	1249351 5526 11001 13678 199.5 239 159 184.17810058594 734.11010742188 71456.594970703 36341496.143377
29188	1254877 5564 11001 13678 199.5 239 159 486.85000610352 486.85000610352 77409.150970459 37686645.622436
vector 29279  IntersectionExampleScenario.node[51].veinsmobility  posx  ETV
vector 29280  IntersectionExampleScenario.node[51].veinsmobility  posy  ETV
vector 29281  IntersectionExampleScenario.node[51].veinsmobility  speed  ETV
vector 29282  IntersectionExampleScenario.node[51].veinsmobility  acceleration  ETV
vector 29283  IntersectionExampleScenario.node[51].veinsmobility  co2emission  ETV
vector 29286  IntersectionExampleScenario.node[52].veinsmobility  posx  ETV
vector 29287  IntersectionExampleScenario.node[52].veinsmobility  posy  ETV
vector 29293  IntersectionExampleScenario.node[53].veinsmobility  posx  ETV
vector 29294  IntersectionExampleScenario.node[53].veinsmobility  posy  ETV
vector 29288  IntersectionExampleScenario.node[52].veinsmobility  speed  ETV
vector 29300  IntersectionExampleScenario.node[54].veinsmobility  posx  ETV
vector 29301  IntersectionExampleScenario.node[54].veinsmobility  posy  ETV
vector 29289  IntersectionExampleScenario.node[52].veinsmobility  acceleration  ETV
vector 29290  IntersectionExampleScenario.node[52].veinsmobility  co2emission  ETV
vector 29295  IntersectionExampleScenario.node[53].veinsmobility  speed  ETV
vector 29296  IntersectionExampleScenario.node[53].veinsmobility  acceleration  ETV
vector 29297  IntersectionExampleScenario.node[53].veinsmobility  co2emission  ETV
vector 29302  IntersectionExampleScenario.node[54].veinsmobility  speed  ETV
vector 29303  IntersectionExampleScenario.node[54].veinsmobility  acceleration  ETV
vector 29304  IntersectionExampleScenario.node[54].veinsmobility  co2emission  ETV
29206	1262045 5226 11270 14198 207.75 245.5 152 0.973 11.648172402475 476.72556722631 2492.501653983
29205	1267271 4635 11270 14198 207.75 245.5 152 -3.3434906005859 2.5 39.359884262085 196.83124836095
29204	1271906 5124 11261 14198 207.5 245.5 153 5.6500000953674 15.64999961853 2214.5847415924 32741.77757842
29203	1277030 5391 11252 14198 207.25 245.5 154 486.85000610352 486.85000610352 74974.900939941 36501530.980221
29202	1282421 5375 11252 14198 207.25 245.5 154 237.44360351562 785.82187652588 80412.387107849 46066752.950755
vector 29307  IntersectionExampleScenario.node[55].veinsmobility  posx  ETV
vector 29308  IntersectionExampleScenario.node[55].veinsmobility  posy  ETV
vector 29309  IntersectionExampleScenario.node[55].veinsmobility  speed  ETV
vector 29310  IntersectionExampleScenario.node[55].veinsmobility  acceleration  ETV
vector 29311  IntersectionExampleScenario.node[55].veinsmobility  co2emission  ETV
29227	1288197 5483 11518 14892 213.25 253 160 0.973 11.200708441096 454.78650599077 2190.3074413497
29226	1293680 4966 11518 14892 213.25 253 160 -3.1778335571289 2.5 35.455564498901 171.03101740571
29225	1298646 5417 11503 14892 213 253 161 5.6500000953674 15.02499961853 2219.631685257 31094.052777967
29224	1304063 5669 11488 14892 212.75 253 162 486.85000610352 486.85000610352 78869.70098877 38397714.407765
29223	1309732 5653 11488 14892 212.75 253 162 235.83654785156 785.82187652588 84224.071556091 48093965.194114
29199	1315385 6771 11032 14930 200.25 253.5 214 0.973 12.099024792222 610.05334970928 3276.5351097493
29198	1322156 5973 11032 14930 200.25 253.5 214 -9.2126970291138 4 41.396924972534 525.32272029751
29197	1328129 6521 11021 14930 200 253.5 215 0 16.27499961853 2208.8034901619 32581.165845418
29196	1334650 7560 11010 14930 199.75 253.5 216 483.14999389648 483.14999389648 104360.39868164 50421725.986069
29195	1342210 7522 11010 14930 199.75 253.5 216 184.17810058594 731.91882324219 98104.838806152 48558568.698671
vector 29314  IntersectionExampleScenario.node[56].veinsmobility  posx  ETV
vector 29315  IntersectionExampleScenario.node[56].veinsmobility  posy  ETV
vector 29316  IntersectionExampleScenario.node[56].veinsmobility  speed  ETV
vector 29317  IntersectionExampleScenario.node[56].veinsmobility  acceleration  ETV
vector 29318  IntersectionExampleScenario.node[56].veinsmobility  co2emission  ETV
29241	1350133 5468 11679 15171 215.75 256.75 165 0.973 11.990504229548 527.63582901218 3000.4213149277
29240	1355601 5438 11679 15171 215.75 256.75 165 -2.1361312866211 2.5 39.529638290405 264.37538419543
29239	1361039 5600 11662 15171 215.5 256.75 166 5.6500000953674 16.125 2226.4680662155 31215.207519525
29238	1366639 5847 11645 15171 215.25 256.75 167 483.14999389648 483.14999389648 80686.048980713 38983464.072563
29237	1372486 5813 11645 15171 215.25 256.75 167 184.17810058594 735.30180358887 74749.828582764 37597563.800562
29220	1378299 6626 11462 15622 212.25 264.5 210 0.973 12.099024792222 602.43393618682 3258.3692158635
29219	1384925 6223 11462 15622 212.25 264.5 210 -7.2880325317383 4 41.057416915894 494.45668877536
29218	1391148 6440 11449 15622 212 264.5 211 0 16.27499961853 2203.0739369392 32352.72089211
29217	1397588 7406 11436 15622 211.75 264.5 212 239.11395263672 785.82187652588 109484.74434662 60534138.146535
29216	1404994 7420 11436 15622 211.75 264.5 212 483.14999389648 483.14999389648 102427.79870605 49487990.31966
29213	1412414 7007 11337 15648 209.5 265 223 0.973 11.90022389248 605.98299561788 3108.5906560688
29212	1419421 6358 11337 15648 209.5 265 223 -6.9388580322266 4 39.869146347046 483.42859168984
29211	1425779 6723 11326 15648 209.25 265 224 0 16 2206.8656001091 31827.855714461
29210	1432502 7850 11315 15648 209 265 225 184.17810058594 486.85000610352 94523.356536865 41720916.881674
29209	1440352 7868 11315 15648 209 265 225 235.83721923828 486.85000610352 101269.21594238 46658712.936112
29255	1448220 5827 12120 15723 221.5 266.5 181 0.973 12.099024792222 566.89623383408 3189.5915186459
29254	1454047 6025 12120 15723 221.5 266.5 181 -2.2514877319336 2.5 42.245687484741 311.80772269427
29253	1460072 6216 12099 15723 221.25 266.5 182 2.5388565063477 16.27499961853 2219.7643008232 31173.261716253
29252	1466288 6381 12078 15723 221 266.5 183 236.00610351562 785.82187652588 95693.374641418 54035386.710642
29251	1472669 6404 12078 15723 221 266.5 183 483.14999389648 483.14999389648 88416.448883057 42718406.738198
vector 29321  IntersectionExampleScenario.node[57].veinsmobility  posx  ETV
vector 29322  IntersectionExampleScenario.node[57].veinsmobility  posy  ETV
vector 29323  IntersectionExampleScenario.node[57].veinsmobility  speed  ETV
29248	1479305 6695 11717 15813 216.25 268.5 210 0.973 11.450879080643 554.11180254218 2727.5350043671
29247	1486000 7169 11717 15813 216.25 268.5 210 -3.9719429016113 2.5 36.813589096069 318.60230684472
29246	1493169 7157 11698 15813 216 268.5 211 0 15.375 2210.6371961609 28903.036645958
29245	1500326 7384 11679 15813 215.75 268.5 212 184.17810058594 486.86761474609 87183.137145996 37780443.645224
29244	1507710 7411 11679 15813 215.75 268.5 212 235.80548095703 486.85000610352 94536.621551514 43254225.115357
vector 29324  IntersectionExampleScenario.node[57].veinsmobility  acceleration  ETV
vector 29325  IntersectionExampleScenario.node[57].veinsmobility  co2emission  ETV
29262	1515290 6358 12187 15891 222.25 270 192 0.973 11.54047740176 547.59033755364 2740.9604611751
29261	1521648 6432 12187 15891 222.25 270 192 -4.5 2.5000019073486 36.98334312439 312.42479692233
29260	1528080 6557 12164 15891 222 270 193 3.9334423542023 15.5 2310.4753425121 30466.923821419
29259	1534637 6761 12141 15891 221.75 270 194 235.92700195312 808.82032012939 103654.26612854 60198911.843094
29258	1541398 6789 12141 15891 221.75 270 194 483.14999389648 483.14999389648 93731.098815918 45286179.820821
vector 29328  IntersectionExampleScenario.node[58].veinsmobility  posx  ETV
vector 29329  IntersectionExampleScenario.node[58].veinsmobility  posy  ETV
vector 29335  IntersectionExampleScenario.node[59].veinsmobility  posx  ETV
vector 29336  IntersectionExampleScenario.node[59].veinsmobility  posy  ETV
vector 29330  IntersectionExampleScenario.node[58].veinsmobility  speed  ETV
vector 29337  IntersectionExampleScenario.node[59].veinsmobility  speed  ETV
vector 29331  IntersectionExampleScenario.node[58].veinsmobility  acceleration  ETV
vector 29332  IntersectionExampleScenario.node[58].veinsmobility  co2emission  ETV
vector 29338  IntersectionExampleScenario.node[59].veinsmobility  acceleration  ETV
vector 29339  IntersectionExampleScenario.node[59].veinsmobility  co2emission  ETV
vector 29342  IntersectionExampleScenario.node[60].veinsmobility  posx  ETV
vector 29343  IntersectionExampleScenario.node[60].veinsmobility  posy  ETV
29269	1549143 6307 12469 16054 225.5 272.75 190 0.973 11.36141391502 566.52660651276 2914.578447201
29268	1555450 6231 12469 16054 225.5 272.75 190 -4.5 2.5 37.32285118103 374.05961850993
29267	1561681 6374 12446 16054 225.25 272.75 191 4.3181161880493 15.25 2279.4602570534 29710.719490372
29266	1568055 6704 12423 16054 225 272.75 192 486.85000610352 809.04920196533 111002.12525177 66329127.029204
29265	1574759 6713 12423 16054 225 272.75 192 236.29699707031 483.14999389648 84414.810211182 38121724.705643
vector 29344  IntersectionExampleScenario.node[60].veinsmobility  speed  ETV
vector 29345  IntersectionExampleScenario.node[60].veinsmobility  acceleration  ETV
vector 29346  IntersectionExampleScenario.node[60].veinsmobility  co2emission  ETV
29276	1581719 5615 12991 16149 231.25 274 172 0.973 11.54047740176 497.67760642606 2646.8521845542
29275	1587334 5550 12991 16149 231.25 274 172 -4.8703269958496 2.5 37.15309715271 222.34840098262
29274	1592884 5800 12968 16149 231 274 173 5.6500000953674 15.5 2242.2899742126 29999.277210017
29273	1598684 6057 12945 16149 230.75 274 174 235.25982666016 790.54502868652 91465.599853516 52457614.03337
29272	1604741 6089 12945 16149 230.75 274 174 483.14999389648 483.14999389648 84068.098937988 40617501.488778
29234	1610830 7952 11567 16472 214 278.25 258 0.973 11.810082123732 638.02062005211 3026.6110991759
29233	1618782 7133 11567 16472 214 278.25 258 -11.95964050293 4 38.850629806519 608.84896860505
29232	1625915 7499 11550 16472 213.75 278.25 259 0 15.875 2278.2167978287 32565.574554318
29231	1633414 9025 11533 16472 213.5 278.25 260 486.85000610352 735.24140930176 134832.90419006 71023387.818638
29230	1642439 9091 11533 16472 213.5 278.25 260 486.63604736328 808.82032012939 143465.15057373 81675732.000924
vector 29349  IntersectionExampleScenario.node[61].veinsmobility  posx  ETV
vector 29350  IntersectionExampleScenario.node[61].veinsmobility  posy  ETV
vector 29351  IntersectionExampleScenario.node[61].veinsmobility  speed  ETV
vector 29352  IntersectionExampleScenario.node[61].veinsmobility  acceleration  ETV
vector 29353  IntersectionExampleScenario.node[61].veinsmobility  co2emission  ETV
29283	1651931 5346 13921 16800 242.25 282.25 161 0.973 12.099024792222 570.00863979154 3622.289740668
29282	1657277 5090 13921 16800 242.25 282.25 161 -3.5737533569336 2.5 40.548154830933 364.03264920886
29281	1662367 5339 13902 16800 242 282.25 162 5.6500000953674 16.27499961853 2185.1845040321 31048.295806568
29280	1667706 5700 13883 16800 241.75 282.25 163 486.85000610352 733.51388549805 87306.201522827 47675859.95741
29279	1673406 5697 13883 16800 241.75 282.25 163 486.84390258789 785.82187652588 93230.397392273 55043195.637974
vector 29356  IntersectionExampleScenario.node[62].veinsmobility  posx  ETV
vector 29357  IntersectionExampleScenario.node[62].veinsmobility  posy  ETV
vector 29363  IntersectionExampleScenario.node[63].veinsmobility  posx  ETV
vector 29364  IntersectionExampleScenario.node[63].veinsmobility  posy  ETV
vector 29358  IntersectionExampleScenario.node[62].veinsmobility  speed  ETV
vector 29359  IntersectionExampleScenario.node[62].veinsmobility  acceleration  ETV
vector 29360  IntersectionExampleScenario.node[62].veinsmobility  co2emission  ETV
vector 29365  IntersectionExampleScenario.node[63].veinsmobility  speed  ETV
vector 29366  IntersectionExampleScenario.node[63].veinsmobility  acceleration  ETV
vector 29367  IntersectionExampleScenario.node[63].veinsmobility  co2emission  ETV
vector 29370  IntersectionExampleScenario.node[64].veinsmobility  posx  ETV
vector 29371  IntersectionExampleScenario.node[64].veinsmobility  posy  ETV
vector 29372  IntersectionExampleScenario.node[64].veinsmobility  speed  ETV
vector 29373  IntersectionExampleScenario.node[64].veinsmobility  acceleration  ETV
vector 29374  IntersectionExampleScenario.node[64].veinsmobility  co2emission  ETV
vector 29377  IntersectionExampleScenario.node[65].veinsmobility  posx  ETV
vector 29378  IntersectionExampleScenario.node[65].veinsmobility  posy  ETV
vector 29379  IntersectionExampleScenario.node[65].veinsmobility  speed  ETV
vector 29380  IntersectionExampleScenario.node[65].veinsmobility  acceleration  ETV
vector 29381  IntersectionExampleScenario.node[65].veinsmobility  co2emission  ETV
vector 29384  IntersectionExampleScenario.node[66].veinsmobility  posx  ETV
vector 29385  IntersectionExampleScenario.node[66].veinsmobility  posy  ETV
vector 29386  IntersectionExampleScenario.node[66].veinsmobility  speed  ETV
vector 29387  IntersectionExampleScenario.node[66].veinsmobility  acceleration  ETV
vector 29388  IntersectionExampleScenario.node[66].veinsmobility  co2emission  ETV
vector 29391  IntersectionExampleScenario.node[67].veinsmobility  posx  ETV
vector 29392  IntersectionExampleScenario.node[67].veinsmobility  posy  ETV
vector 29393  IntersectionExampleScenario.node[67].veinsmobility  speed  ETV
vector 29394  IntersectionExampleScenario.node[67].veinsmobility  acceleration  ETV
vector 29395  IntersectionExampleScenario.node[67].veinsmobility  co2emission  ETV
vector 29398  IntersectionExampleScenario.node[68].veinsmobility  posx  ETV
vector 29399  IntersectionExampleScenario.node[68].veinsmobility  posy  ETV
vector 29400  IntersectionExampleScenario.node[68].veinsmobility  speed  ETV
vector 29401  IntersectionExampleScenario.node[68].veinsmobility  acceleration  ETV
vector 29402  IntersectionExampleScenario.node[68].veinsmobility  co2emission  ETV
29318	1681910 5995 14988 18406 254.25 299.75 183 0.973 12.099024792222 575.47460930349 3228.5454836941
29317	1687905 5721 14988 18406 254.25 299.75 183 -7.1138982772827 4 40.717908859253 499.96596838474
29316	1693626 5885 14969 18406 254 299.75 184 0 16.27499961853 2214.7702505589 32450.029823954
29315	1699511 6460 14949 18406 253.75 299.75 185 236.18908691406 785.82187652588 95816.432273865 53680110.368161
29314	1705971 6476 14949 18406 253.75 299.75 185 483.14999389648 483.14999389648 89382.74887085 43185274.571402
29304	1712447 6972 14148 18471 245 300.5 223 0.973 11.450879080643 575.40603618042 2809.6844044086
29303	1719419 6592 14148 18471 245 300.5 223 -7.1795997619629 4 37.15309715271 467.80386473878
29302	1726011 6699 14123 18471 244.75 300.5 224 0 15.375 2093.1980674267 29013.702076018
29301	1732710 7856 14098 18471 244.5 300.5 225 210.43438720703 486.85000610352 96348.321105957 42869705.768699
29300	1740566 7869 14098 18471 244.5 300.5 225 237.33026123047 486.85000610352 101014.80859375 46446622.230118
29290	1748435 7341 14098 18618 244.5 302.25 232 0.973 11.00486315618 605.77198305042 2797.5397896329
29289	1755776 6967 14098 18618 244.5 302.25 232 -4.5 2.5 38.850629806519 452.6313307792
29288	1762743 7212 14075 18618 244.25 302.25 233 0 15.422231674194 2204.5058470964 30609.926765624
29287	1769955 8175 14054 18618 244 302.25 234 184.17810058594 486.96807861328 97406.444946289 42670667.384672
29286	1778130 8181 14054 18618 244 302.25 234 236.89862060547 486.85000610352 105582.37835693 48730496.240685
vector 29405  IntersectionExampleScenario.node[69].veinsmobility  posx  ETV
vector 29406  IntersectionExampleScenario.node[69].veinsmobility  posy  ETV
vector 29407  IntersectionExampleScenario.node[69].veinsmobility  speed  ETV
vector 29408  IntersectionExampleScenario.node[69].veinsmobility  acceleration  ETV
vector 29409  IntersectionExampleScenario.node[69].veinsmobility  co2emission  ETV
29297	1786712 8036 14123 18827 244.75 304.75 241 0.973 11.093806525473 598.07680681429 2606.7209743003
29296	1794748 8140 14123 18827 244.75 304.75 241 -4.5 2.5 35.964826583862 370.38854028455
29295	1802888 8292 14098 18827 244.5 304.75 242 0 14.905571937561 2320.9422323611 30775.089732431
29294	1811180 8474 14075 18827 244.25 304.75 243 159.76721191406 735.3846282959 106925.40881348 52200919.116031
29293	1819654 8507 14075 18827 244.25 304.75 243 486.85000610352 486.85000610352 118304.55148315 57596571.611647
vector 29412  IntersectionExampleScenario.node[70].veinsmobility  posx  ETV
vector 29413  IntersectionExampleScenario.node[70].veinsmobility  posy  ETV
vector 29414  IntersectionExampleScenario.node[70].veinsmobility  speed  ETV
vector 29415  IntersectionExampleScenario.node[70].veinsmobility  acceleration  ETV
vector 29416  IntersectionExampleScenario.node[70].veinsmobility  co2emission  ETV
vector 29419  IntersectionExampleScenario.node[71].veinsmobility  posx  ETV
vector 29420  IntersectionExampleScenario.node[71].veinsmobility  posy  ETV
vector 29421  IntersectionExampleScenario.node[71].veinsmobility  speed  ETV
vector 29422  IntersectionExampleScenario.node[71].veinsmobility  acceleration  ETV
vector 29423  IntersectionExampleScenario.node[71].veinsmobility  co2emission  ETV
vector 29426  IntersectionExampleScenario.node[72].veinsmobility  posx  ETV
vector 29427  IntersectionExampleScenario.node[72].veinsmobility  posy  ETV
vector 29428  IntersectionExampleScenario.node[72].veinsmobility  speed  ETV
vector 29429  IntersectionExampleScenario.node[72].veinsmobility  acceleration  ETV
vector 29430  IntersectionExampleScenario.node[72].veinsmobility  co2emission  ETV
29332	1829364 5422 16003 19452 272 311.5 159 0.973 11.450879080643 482.87778675641 2499.9324381627
29331	1834786 4905 16003 19452 272 311.5 159 -3.3367309570312 2.5 37.15309715271 226.39588837207
29330	1839691 5319 15986 19452 271.75 311.5 160 5.6500000953674 15.375 2202.6555013657 31161.428047325
29329	1845010 5628 15969 19452 271.5 311.5 161 483.13882446289 785.82187652588 92099.8229599 54476754.214058
29328	1850638 5625 15969 19452 271.5 311.5 161 483.14999389648 732.02966308594 86273.495391846 47191347.420942
29311	1856263 7942 14684 19705 250.5 314.25 256 0.973 11.00486315618 597.13526732628 2595.7710481185
29310	1864205 7106 14684 19705 250.5 314.25 256 -9.2687568664551 4 34.606801986694 478.02837339951
29309	1871311 7566 14661 19705 250.25 314.25 257 0 14.75 2204.3600749969 29580.539234354
29308	1878877 9019 14638 19705 250 314.25 258 235.53033447266 486.85000610352 116592.09423828 53885985.338039
29307	1887896 9022 14638 19705 250 314.25 258 483.14999389648 785.82187652588 140798.35350037 78987160.111167
29346	1896918 5635 16092 19843 273.25 315.75 171 0.973 11.648172402475 533.75785777234 2836.2971145262
29345	1902553 5514 16092 19843 273.25 315.75 171 -2.1371688842773 2.5000019073486 39.699392318726 270.05324205531
29344	1908067 5748 16073 19843 273 315.75 172 5.4058861732483 15.64999961853 2207.2275996208 30274.40054938
29343	1913815 6045 16054 19843 272.75 315.75 173 237.72857666016 486.85000610352 76022.892486572 34376343.724639
29342	1919860 6049 16054 19843 272.75 315.75 173 483.14999389648 785.82187652588 98410.034065247 57762678.693118
vector 29433  IntersectionExampleScenario.node[73].veinsmobility  posx  ETV
vector 29434  IntersectionExampleScenario.node[73].veinsmobility  posy  ETV
vector 29440  IntersectionExampleScenario.node[74].veinsmobility  posx  ETV
vector 29441  IntersectionExampleScenario.node[74].veinsmobility  posy  ETV
vector 29435  IntersectionExampleScenario.node[73].veinsmobility  speed  ETV
vector 29447  IntersectionExampleScenario.node[75].veinsmobility  posx  ETV
vector 29448  IntersectionExampleScenario.node[75].veinsmobility  posy  ETV
vector 29436  IntersectionExampleScenario.node[73].veinsmobility  acceleration  ETV
vector 29437  IntersectionExampleScenario.node[73].veinsmobility  co2emission  ETV
vector 29442  IntersectionExampleScenario.node[74].veinsmobility  speed  ETV
vector 29443  IntersectionExampleScenario.node[74].veinsmobility  acceleration  ETV
vector 29444  IntersectionExampleScenario.node[74].veinsmobility  co2emission  ETV
vector 29449  IntersectionExampleScenario.node[75].veinsmobility  speed  ETV
vector 29450  IntersectionExampleScenario.node[75].veinsmobility  acceleration  ETV
vector 29451  IntersectionExampleScenario.node[75].veinsmobility  co2emission  ETV
29353	1927112 5201 16590 20144 279.75 318.5 156 0.973 11.884016362304 525.44208575057 3217.0965268179
29352	1932313 4959 16590 20144 279.75 318.5 156 -3.7498245239258 2.5 39.020376205444 275.80933554564
29351	1937272 5240 16569 20144 279.5 318.5 157 5.6500000953674 15.9775390625 2216.3122911453 32008.923283948
29350	1942512 5531 16548 20144 279.25 318.5 158 486.85000610352 486.85000610352 76922.300964355 37449622.693993
29349	1948043 5501 16548 20144 279.25 318.5 158 237.00457763672 785.82187652588 82688.042732239 47398186.92805
29325	1953544 6895 15826 20672 268.75 323.5 220 0.973 12.099024792222 612.46800333811 3250.2245570829
29324	1960439 6341 15826 20672 268.75 323.5 220 -6.9978852272034 4 41.227170944214 489.15880119239
29323	1966780 6612 15813 20672 268.5 323.5 221 0 16.27499961853 2191.8622056246 32120.723113055
29322	1973392 7767 15800 20672 268.25 323.5 222 483.14999389648 735.22354125977 115436.21990967 61095987.805721
29321	1981159 7744 15800 20672 268.25 323.5 222 184.17810058594 486.85000610352 93247.905212402 41154599.404709
vector 29454  IntersectionExampleScenario.node[76].veinsmobility  posx  ETV
vector 29455  IntersectionExampleScenario.node[76].veinsmobility  posy  ETV
vector 29456  IntersectionExampleScenario.node[76].veinsmobility  speed  ETV
vector 29457  IntersectionExampleScenario.node[76].veinsmobility  acceleration  ETV
vector 29458  IntersectionExampleScenario.node[76].veinsmobility  co2emission  ETV
29339	1989304 7296 16003 20983 272 327.25 222 0.973 11.450879080643 578.92882453606 2796.2104158528
29338	1996600 7384 16003 20983 272 327.25 222 -3.9409558773041 2.5000019073486 36.98334312439 361.89661147581
29337	2003984 7580 15986 20983 271.75 327.25 223 0 15.375 2256.9993011523 30471.774690376
29336	2011564 7829 15969 20983 271.5 327.25 224 483.14999389648 734.63220214844 116908.00570679 62135325.841002
29335	2019393 7802 15969 20983 271.5 327.25 224 172.9296875 487.05978393555 92210.304840088 40134199.467338
vector 29461  IntersectionExampleScenario.node[77].veinsmobility  posx  ETV
vector 29462  IntersectionExampleScenario.node[77].veinsmobility  posy  ETV
vector 29468  IntersectionExampleScenario.node[78].veinsmobility  posx  ETV
vector 29469  IntersectionExampleScenario.node[78].veinsmobility  posy  ETV
vector 29463  IntersectionExampleScenario.node[77].veinsmobility  speed  ETV
vector 29464  IntersectionExampleScenario.node[77].veinsmobility  acceleration  ETV
vector 29465  IntersectionExampleScenario.node[77].veinsmobility  co2emission  ETV
vector 29470  IntersectionExampleScenario.node[78].veinsmobility  speed  ETV
vector 29475  IntersectionExampleScenario.node[79].veinsmobility  posx  ETV
vector 29476  IntersectionExampleScenario.node[79].veinsmobility  posy  ETV
vector 29471  IntersectionExampleScenario.node[78].veinsmobility  acceleration  ETV
vector 29472  IntersectionExampleScenario.node[78].veinsmobility  co2emission  ETV
vector 29477  IntersectionExampleScenario.node[79].veinsmobility  speed  ETV
vector 29478  IntersectionExampleScenario.node[79].veinsmobility  acceleration  ETV
vector 29479  IntersectionExampleScenario.node[79].veinsmobility  co2emission  ETV
vector 29482  IntersectionExampleScenario.node[80].veinsmobility  posx  ETV
vector 29483  IntersectionExampleScenario.node[80].veinsmobility  posy  ETV
vector 29484  IntersectionExampleScenario.node[80].veinsmobility  speed  ETV
29360	2028630 6700 16911 21714 283.5 335.5 209 0.973 11.450879080643 568.03475093754 2799.7547169631
29359	2035330 6175 16911 21714 283.5 335.5 209 -8.2128324508667 4 36.813589096069 483.09837192663
29358	2041505 6496 16886 21714 283.25 335.5 210 0 15.375 2194.1650776863 30391.974956571
29357	2048001 7353 16863 21714 283 335.5 211 184.17810058594 486.85000610352 87573.034332275 38342833.309498
29356	2055354 7374 16863 21714 283 335.5 211 238.42358398438 486.85000610352 94227.760986328 43145680.13304
vector 29485  IntersectionExampleScenario.node[80].veinsmobility  acceleration  ETV
vector 29486  IntersectionExampleScenario.node[80].veinsmobility  co2emission  ETV
vector 29489  IntersectionExampleScenario.node[81].veinsmobility  posx  ETV
vector 29490  IntersectionExampleScenario.node[81].veinsmobility  posy  ETV
vector 29491  IntersectionExampleScenario.node[81].veinsmobility  speed  ETV
vector 29492  IntersectionExampleScenario.node[81].veinsmobility  acceleration  ETV
vector 29493  IntersectionExampleScenario.node[81].veinsmobility  co2emission  ETV
29388	2063298 6241 17374 21874 288.75 337.25 195 0.973 12.553400930962 607.02535751141 3337.3155205389
29387	2069539 6047 17374 21874 288.75 337.25 195 -7.0662851333618 4 43.433965682983 521.59869579043
29386	2075586 6064 17351 21874 288.5 337.25 196 0 16.89999961853 2181.4266576767 32569.403556504
29385	2081650 6880 17328 21874 288.25 337.25 197 486.75677490234 785.82187652588 109626.04512787 62870804.577768
29384	2088530 6890 17328 21874 288.25 337.25 197 237.02380371094 483.14999389648 87545.572967529 39849932.025807
29367	2095420 7330 16936 22104 283.75 339.75 225 0.973 10.5250933414 598.65204225579 2614.1643345049
29366	2102750 7020 16936 22104 283.75 339.75 225 -4.5 2.5 37.662351608276 443.09008694074
29365	2109770 7483 16911 22104 283.5 339.75 226 0 15.146014213562 2300.9650124684 31353.859721911
29364	2117253 7932 16886 22104 283.25 339.75 227 159.76721191406 486.85000610352 92578.19152832 40235957.729675
29363	2125185 7934 16886 22104 283.25 339.75 227 236.70355224609 486.85000610352 101961.43588257 46894550.644777
29381	2133119 6854 17306 22127 288 340 209 0.973 11.648172402475 581.12369694923 2951.4350725369
29380	2139973 6716 17306 22127 288 340 209 -3.7455425262451 2.5 38.341367721558 397.82430658628
29379	2146689 7003 17283 22127 287.75 340 210 0 15.64999961853 2257.4303801954 30585.423199206
29378	2153692 7362 17260 22127 287.5 340 211 166.42535400391 483.14999389648 85248.048522949 36605079.009151
29377	2161054 7364 17260 22127 287.5 340 211 486.85000610352 733.86317443848 110965.36901855 59386926.264003
29395	2168418 6071 17907 22214 294.5 341 187 0.973 12.099024792222 582.97984177448 3170.193511225
29394	2174489 6350 17907 22214 294.5 341 187 -4.5 2.5 41.468885421753 436.49228071884
29393	2180839 6382 17882 22214 294.25 341 188 1.9477548599243 16.27499961853 2190.2637674809 30302.149425025
29392	2187221 6605 17857 22214 294 341 189 486.79769897461 785.82187652588 106399.42801666 61701193.674141
29391	2193826 6609 17857 22214 294 341 189 235.59124755859 483.14999389648 83369.468444824 37742320.901458
vector 29496  IntersectionExampleScenario.node[82].veinsmobility  posx  ETV
vector 29497  IntersectionExampleScenario.node[82].veinsmobility  posy  ETV
vector 29498  IntersectionExampleScenario.node[82].veinsmobility  speed  ETV
vector 29499  IntersectionExampleScenario.node[82].veinsmobility  acceleration  ETV
vector 29500  IntersectionExampleScenario.node[82].veinsmobility  co2emission  ETV
29402	2200836 6063 18100 22373 296.5 342.75 186 0.973 11.648172402475 583.49908260965 3088.9469989053
29401	2206899 6311 18100 22373 296.5 342.75 186 -4.5 2.5 40.038900375366 387.67770339295
29400	2213210 6513 18075 22373 296.25 342.75 187 4.21715259552 15.932996749878 2207.5250039101 29201.107610445
29399	2219723 6537 18050 22373 296 342.75 188 184.17810058594 486.85000610352 75918.619232178 32474725.153575
29398	2226260 6577 18050 22373 296 342.75 188 237.11541748047 486.85000610352 83315.609680176 37923941.217845
vector 29503  IntersectionExampleScenario.node[83].veinsmobility  posx  ETV
vector 29504  IntersectionExampleScenario.node[83].veinsmobility  posy  ETV
vector 29505  IntersectionExampleScenario.node[83].veinsmobility  speed  ETV
vector 29506  IntersectionExampleScenario.node[83].veinsmobility  acceleration  ETV
vector 29507  IntersectionExampleScenario.node[83].veinsmobility  co2emission  ETV
29374	2233238 7576 17197 22843 286.75 347.75 245 0.973 11.90022389248 632.03286276261 3149.676443833
29373	2240814 7104 17197 22843 286.75 347.75 245 -9.9936237335205 4 40.208654403687 582.32374469478
29372	2247918 7130 17176 22843 286.5 347.75 246 0 16 2194.0879220963 31990.113730224
29371	2255048 8646 17155 22843 286.25 347.75 247 238.72613525391 486.85000610352 112205.98757935 52039604.780757
29370	2263694 8638 17155 22843 286.25 347.75 247 483.14999389648 785.82187652588 134636.11281586 75450244.396735
29409	2272332 6246 18722 23193 303.5 351.25 192 0.973 11.200708441096 528.39020513287 2564.7113262253
29408	2278578 6367 18722 23193 303.5 351.25 192 -2.0914916992188 2.5000009536743 35.964826583862 265.27194741392
29407	2284945 6566 18701 23193 303.25 351.25 193 2.5369498729706 15.02499961853 2210.7917261124 28577.12405723
29406	2291511 6783 18680 23193 303 351.25 194 235.47058105469 486.85000610352 85625.470092773 38870563.699402
29405	2298294 6780 18680 23193 303 351.25 194 482.95141601562 785.82187652588 109437.39144135 63614843.108312
29416	2305074 6353 18894 23343 305.5 352.75 190 0.973 11.200708441096 552.72620232758 2653.5727035589
29415	2311427 6193 18894 23343 305.5 352.75 190 -4.5 2.5 38.511121749878 324.91978500591
29414	2317620 6443 18871 23343 305.25 352.75 191 3.8129053115845 15.305675506592 2274.8942694664 30304.600187329
29413	2324063 6713 18848 23343 305 352.75 192 238.01586914062 486.85000610352 85158.058776855 38787686.698497
29412	2330776 6710 18848 23343 305 352.75 192 483.13845825195 803.92188262939 110099.92037201 65238686.757553
29451	2337486 5184 19999 23675 317.25 356.5 158 0.973 11.648172402475 518.17245787086 3136.8559848137
29450	2342670 5039 19999 23675 317.25 356.5 158 -3.0072822570801 2.5 38.511121749878 261.82229824755
29449	2347709 5280 19970 23675 317 356.5 159 5.6500000953674 15.64999961853 2204.2346534729 31458.280695348
29448	2352989 5580 19941 23675 316.75 356.5 160 237.68914794922 486.85000610352 69565.133972168 31194556.39042
29447	2358569 5592 19941 23675 316.75 356.5 160 483.12194824219 785.82187652588 91540.621986389 54145370.297865
vector 29510  IntersectionExampleScenario.node[84].veinsmobility  posx  ETV
vector 29511  IntersectionExampleScenario.node[84].veinsmobility  posy  ETV
vector 29512  IntersectionExampleScenario.node[84].veinsmobility  speed  ETV
vector 29513  IntersectionExampleScenario.node[84].veinsmobility  acceleration  ETV
vector 29514  IntersectionExampleScenario.node[84].veinsmobility  co2emission  ETV
vector 29517  IntersectionExampleScenario.node[85].veinsmobility  posx  ETV
vector 29518  IntersectionExampleScenario.node[85].veinsmobility  posy  ETV
29437	2364716 6750 19941 24407 316.75 369.75 213 0.973 12.099024792222 608.97374187231 3255.4094337664
29436	2371466 5948 19941 24407 316.75 369.75 213 -9.2126445770264 4 41.396924972534 521.82208356757
29435	2377414 6485 19914 24407 316.5 369.75 214 0 16.27499961853 2210.9291436672 32489.485904066
29434	2383899 7520 19889 24407 316.25 369.75 215 483.14999389648 785.82187652588 118569.34539032 67358403.784315
29433	2391419 7523 19889 24407 316.25 369.75 215 483.14999389648 734.8274230957 112010.49603271 59409450.665233
vector 29519  IntersectionExampleScenario.node[85].veinsmobility  speed  ETV
vector 29520  IntersectionExampleScenario.node[85].veinsmobility  acceleration  ETV
vector 29521  IntersectionExampleScenario.node[85].veinsmobility  co2emission  ETV
29423	2399189 7546 19190 24440 308.75 370.5 248 0.973 11.450879080643 628.75387603431 3217.9476550846
29422	2406735 7038 19190 24440 308.75 370.5 248 -29.356281280518 4 36.98334312439 1261.6339888531
29421	2413773 7243 19167 24440 308.5 370.5 249 0 15.388799667358 2198.0334196091 30874.599691904
29420	2421016 8724 19144 24440 308.25 370.5 250 184.17810058594 486.85000610352 106021.00109863 47065531.018499
29419	2429740 8749 19144 24440 308.25 370.5 250 237.87945556641 486.85000610352 113200.61260986 52380964.362155
vector 29524  IntersectionExampleScenario.node[86].veinsmobility  posx  ETV
vector 29525  IntersectionExampleScenario.node[86].veinsmobility  posy  ETV
vector 29526  IntersectionExampleScenario.node[86].veinsmobility  speed  ETV
vector 29527  IntersectionExampleScenario.node[86].veinsmobility  acceleration  ETV
vector 29528  IntersectionExampleScenario.node[86].veinsmobility  co2emission  ETV
29444	2438890 7385 19970 24503 317 372 221 0.973 11.734972051661 606.6070877319 2888.5352826251
29443	2446275 7303 19970 24503 317 372 221 -4.5 2.5 38.680875778198 468.63549367646
29442	2453578 7571 19941 24503 316.75 372 222 0 15.770698547363 2282.2195575526 31663.577742495
29441	2461149 7778 19914 24503 316.5 372 223 486.63189697266 810.23281097412 125849.65130615 73428199.304899
29440	2468927 7789 19914 24503 316.5 372 223 236.05456542969 483.14999389648 99542.766082764 45478368.746662
29430	2476716 8482 19309 24591 310 374 257 0.973 11.200708441096 638.46300435786 2855.3403637695
29429	2485198 8587 19309 24591 310 374 257 -4.5 2.5 38.171613693237 426.79683945377
29428	2493785 8782 19284 24591 309.75 374 258 0 15.399415016174 2284.7348707393 31481.335132086
29427	2502567 9038 19259 24591 309.5 374 259 162.90466308594 486.89053344727 107942.51226807 47441665.690683
29426	2511605 9061 19259 24591 309.5 374 259 238.30407714844 486.85000610352 117721.59216309 54617353.761012
29458	2520666 6605 20839 24690 325.5 376.25 204 0.973 11.200708441096 552.24181642099 2589.4282215375
29457	2527271 6947 20839 24690 325.5 376.25 204 -4.5 2.5 36.98334312439 322.38471195876
29456	2534218 7132 20818 24690 325.25 376.25 205 1.2834224700928 15.035913467407 2194.7629790306 28277.584905545
29455	2541350 7174 20797 24690 325 376.25 206 184.17810058594 486.96514892578 84110.338500977 36230291.534348
29454	2548524 7204 20797 24690 325 376.25 206 238.50463867188 486.85000610352 91816.743713379 41978452.711552
29465	2555728 6192 21198 24734 330 377.25 190 0.973 12.26218747632 582.64619865587 3192.1666166474
29464	2561920 6254 21198 24734 330 377.25 190 -4.5 2.5 41.227170944214 395.02790482043
29463	2568174 6334 21175 24734 329.75 377.25 191 3.808198928833 16.5 2179.8191201687 29186.68819007
29462	2574508 6690 21154 24734 329.5 377.25 192 184.17810058594 483.14999389648 77292.314086914 32871023.197462
29461	2581198 6714 21154 24734 329.5 377.25 192 486.85000610352 731.96376037598 101239.99691772 54331625.07746
vector 29531  IntersectionExampleScenario.node[87].veinsmobility  posx  ETV
vector 29532  IntersectionExampleScenario.node[87].veinsmobility  posy  ETV
vector 29538  IntersectionExampleScenario.node[88].veinsmobility  posx  ETV
vector 29539  IntersectionExampleScenario.node[88].veinsmobility  posy  ETV
vector 29533  IntersectionExampleScenario.node[87].veinsmobility  speed  ETV
vector 29534  IntersectionExampleScenario.node[87].veinsmobility  acceleration  ETV
vector 29535  IntersectionExampleScenario.node[87].veinsmobility  co2emission  ETV
vector 29540  IntersectionExampleScenario.node[88].veinsmobility  speed  ETV
vector 29541  IntersectionExampleScenario.node[88].veinsmobility  acceleration  ETV
vector 29542  IntersectionExampleScenario.node[88].veinsmobility  co2emission  ETV
29486	2588714 5743 21737 24880 335.75 380.25 179 0.973 11.200708441096 488.11632733064 2532.3991178096
29485	2594457 5831 21737 24880 335.75 380.25 179 -2.9134368896484 2.5 35.795072555542 218.22891574636
29484	2600288 6020 21714 24880 335.5 380.25 180 5.6500000953674 15.02499961853 2211.0109539032 28485.478197519
29483	2606308 6297 21691 24880 335.25 380.25 181 184.17810058594 486.8805847168 72457.494110107 30842872.57491
29482	2612605 6334 21691 24880 335.25 380.25 181 235.89007568359 486.85000610352 79299.563079834 35789154.333474
29493	2618939 5652 21874 24924 337.25 381.25 177 0.973 11.881282057551 525.29469692437 2732.7498547642
29492	2624591 6170 21874 24924 337.25 381.25 177 -2.0844459533691 2.5 41.294996261597 205.33049314968
29491	2630761 6077 21851 24924 337 381.25 178 5.6500000953674 16.032878875732 2284.3721008301 30787.772122127
29490	2636838 6234 21828 24924 336.75 381.25 179 163.88433837891 486.85000610352 70441.886383057 29839506.248522
29489	2643072 6264 21828 24924 336.75 381.25 179 238.18957519531 486.85000610352 78623.360473633 35547364.959747
29479	2649336 6649 21271 25001 330.75 383 210 0.973 11.90022389248 594.94596542817 3102.9504632241
29478	2655985 6047 21271 25001 330.75 383 210 -8.9437007904053 4 40.038900375366 513.54499358104
29477	2662032 6440 21246 25001 330.5 383 211 0 16 2207.7547175884 31939.697695452
29476	2668472 7412 21221 25001 330.25 383 212 235.31896972656 486.85000610352 94927.178466797 43569659.280971
29475	2675884 7410 21221 25001 330.25 383 212 483.14999389648 785.82187652588 117225.77846527 66794055.669685
29507	2683294 5288 22768 25143 347 386.75 160 0.93438186594183 12.26218747632 579.15511054081 3800.5683487059
29506	2688582 5119 22768 25143 347 386.75 160 -3.4664249420166 2.5 41.057416915894 394.1161831263
29505	2693701 5286 22743 25143 346.75 386.75 161 5.6500000953674 16.5 2176.5015788078 31064.074967215
29504	2698987 5668 22718 25143 346.5 386.75 162 486.85000610352 731.42851257324 86619.012680054 47200823.005967
29503	2704655 5659 22718 25143 346.5 386.75 162 486.85000610352 785.82187652588 92738.758720398 54796099.709009
vector 29545  IntersectionExampleScenario.node[89].veinsmobility  posx  ETV
vector 29546  IntersectionExampleScenario.node[89].veinsmobility  posy  ETV
[...]
32151	15991760 7934 132514 136746 1699.25 1754.75 223 2.0372858047485 14.703806877136 2271.1519012451 27960.297545291
32150	15999694 8267 132485 136746 1699 1754.75 224 486.85000610352 732.8807220459 117730.22680664 62961031.344969
32149	16007961 8264 132485 136746 1699 1754.75 224 486.73217773438 807.99687957764 127828.23300934 75211733.157708
vector 32226  IntersectionExampleScenario.node[472].veinsmobility  posx  ETV
vector 32227  IntersectionExampleScenario.node[472].veinsmobility  posy  ETV
vector 32233  IntersectionExampleScenario.node[473].veinsmobility  posx  ETV
vector 32234  IntersectionExampleScenario.node[473].veinsmobility  posy  ETV
32160	16016537 7477 132797 136768 1701.75 1755.25 215 0.973 11.54047740176 582.99375495446 2755.3496957767
32159	16024014 7467 132797 136768 1701.75 1755.25 215 -4.5 2.5 37.15309715271 402.05125577172
32158	16031481 7769 132768 136768 1701.5 1755.25 216 0.70859760046005 15.5 2330.0152726769 30096.730850224
32157	16039250 8030 132739 136768 1701.25 1755.25 217 486.85000610352 486.85000610352 105646.45132446 51433975.472129
32156	16047280 8013 132739 136768 1701.25 1755.25 217 236.77960205078 813.79532623291 116365.12460327 67285230.531041
vector 32228  IntersectionExampleScenario.node[472].veinsmobility  speed  ETV
vector 32235  IntersectionExampleScenario.node[473].veinsmobility  speed  ETV
vector 32229  IntersectionExampleScenario.node[472].veinsmobility  acceleration  ETV
vector 32230  IntersectionExampleScenario.node[472].veinsmobility  co2emission  ETV
vector 32236  IntersectionExampleScenario.node[473].veinsmobility  acceleration  ETV
vector 32237  IntersectionExampleScenario.node[473].veinsmobility  co2emission  ETV
32174	16055793 6697 133472 136842 1708 1756.5 195 0.973 11.200708441096 566.33011328597 2860.7531984377
32173	16062490 6777 133472 136842 1708 1756.5 195 -4.5 2.5 40.245191574097 350.90895099755
32172	16069267 7038 133443 136842 1707.75 1756.5 196 1.9504153728485 15.728488922119 2217.0301909447 29394.949686316
32171	16076305 7289 133414 136842 1707.5 1756.5 197 486.85000610352 486.85000610352 95909.451202393 46693516.90327
32170	16083594 7277 133414 136842 1707.5 1756.5 197 236.88970947266 785.82187652588 103873.51334381 58891930.184621
vector 32240  IntersectionExampleScenario.node[474].veinsmobility  posx  ETV
vector 32241  IntersectionExampleScenario.node[474].veinsmobility  posy  ETV
vector 32242  IntersectionExampleScenario.node[474].veinsmobility  speed  ETV
vector 32243  IntersectionExampleScenario.node[474].veinsmobility  acceleration  ETV
vector 32244  IntersectionExampleScenario.node[474].veinsmobility  co2emission  ETV
32167	16091277 6961 133360 136971 1707 1758.75 208 0.96461463619268 12.099024792222 592.90454040134 3294.5988612989
32166	16098238 6721 133360 136971 1707 1758.75 208 -8.9010400772095 4 40.038900375366 522.19011956419
32165	16104959 6831 133333 136971 1706.75 1758.75 209 0 16.27499961853 2205.2791702747 32038.405387422
32164	16111790 7771 133306 136971 1706.5 1758.75 210 483.14999389648 483.14999389648 101461.49871826 49021122.486456
32163	16119561 7743 133306 136971 1706.5 1758.75 210 184.17810058594 731.70051574707 95298.503692627 47294352.1382
vector 32247  IntersectionExampleScenario.node[475].veinsmobility  posx  ETV
vector 32248  IntersectionExampleScenario.node[475].veinsmobility  posy  ETV
vector 32249  IntersectionExampleScenario.node[475].veinsmobility  speed  ETV
vector 32254  IntersectionExampleScenario.node[476].veinsmobility  posx  ETV
vector 32255  IntersectionExampleScenario.node[476].veinsmobility  posy  ETV
vector 32250  IntersectionExampleScenario.node[475].veinsmobility  acceleration  ETV
vector 32251  IntersectionExampleScenario.node[475].veinsmobility  co2emission  ETV
vector 32256  IntersectionExampleScenario.node[476].veinsmobility  speed  ETV
vector 32257  IntersectionExampleScenario.node[476].veinsmobility  acceleration  ETV
vector 32258  IntersectionExampleScenario.node[476].veinsmobility  co2emission  ETV
32188	16128116 5365 135090 137246 1725.5 1763 151 0.973 12.553400930962 563.53279506556 3884.5923191964
32187	16133481 5016 135090 137246 1725.5 1763 151 -4.0866813659668 2.5 42.924703598022 339.13788734435
32186	16138497 5319 135072 137246 1725.25 1763 152 5.6500000953674 16.89999961853 2211.6143760681 33409.647381881
32185	16143816 5655 135053 137246 1725 1763 153 483.14999389648 734.61428833008 81862.706039429 44716536.507472
32184	16149471 5640 135053 137246 1725 1763 153 184.17810058594 487.01675415039 60803.19039917 25877376.407097
vector 32261  IntersectionExampleScenario.node[477].veinsmobility  posx  ETV
vector 32262  IntersectionExampleScenario.node[477].veinsmobility  posy  ETV
vector 32268  IntersectionExampleScenario.node[478].veinsmobility  posx  ETV
vector 32269  IntersectionExampleScenario.node[478].veinsmobility  posy  ETV
vector 32263  IntersectionExampleScenario.node[477].veinsmobility  speed  ETV
vector 32264  IntersectionExampleScenario.node[477].veinsmobility  acceleration  ETV
vector 32265  IntersectionExampleScenario.node[477].veinsmobility  co2emission  ETV
vector 32270  IntersectionExampleScenario.node[478].veinsmobility  speed  ETV
vector 32271  IntersectionExampleScenario.node[478].veinsmobility  acceleration  ETV
vector 32272  IntersectionExampleScenario.node[478].veinsmobility  co2emission  ETV
32181	16155923 7586 134113 137830 1714.25 1770.5 226 0.973 11.450879080643 589.47184761521 2835.2630090459
32180	16163509 6789 134113 137830 1714.25 1770.5 226 -6.998438835144 4 37.492597579956 466.08309252326
32179	16170298 7309 134086 137830 1714 1770.5 227 0 15.375 2203.9427442551 30785.574977167
32178	16177607 8425 134059 137830 1713.75 1770.5 228 483.14999389648 785.82187652588 125489.00632477 71110166.068957
32177	16186032 8427 134059 137830 1713.75 1770.5 228 483.14999389648 733.76802062988 118713.74645996 62919655.053789
32195	16194459 6157 135281 137991 1728.25 1772.25 177 0.973 11.648172402475 540.88508103235 2866.0107881768
32194	16200616 6114 135281 137991 1728.25 1772.25 177 -2.1482048034668 2.5 39.869146347046 278.2528850122
32193	16206730 6370 135262 137991 1728 1772.25 178 3.8019344806671 15.64999961853 2203.3866007328 30059.464926343
32192	16213100 6612 135243 137991 1727.75 1772.25 179 482.99285888672 785.82187652588 101520.69985199 59372687.586069
32191	16219712 6603 135243 137991 1727.75 1772.25 179 483.14999389648 732.72811889648 94669.511947632 51054769.811114
vector 32275  IntersectionExampleScenario.node[479].veinsmobility  posx  ETV
vector 32276  IntersectionExampleScenario.node[479].veinsmobility  posy  ETV
vector 32277  IntersectionExampleScenario.node[479].veinsmobility  speed  ETV
vector 32278  IntersectionExampleScenario.node[479].veinsmobility  acceleration  ETV
vector 32279  IntersectionExampleScenario.node[479].veinsmobility  co2emission  ETV
vector 32282  IntersectionExampleScenario.node[480].veinsmobility  posx  ETV
vector 32283  IntersectionExampleScenario.node[480].veinsmobility  posy  ETV
vector 32284  IntersectionExampleScenario.node[480].veinsmobility  speed  ETV
vector 32285  IntersectionExampleScenario.node[480].veinsmobility  acceleration  ETV
vector 32286  IntersectionExampleScenario.node[480].veinsmobility  co2emission  ETV
vector 32289  IntersectionExampleScenario.node[481].veinsmobility  posx  ETV
vector 32290  IntersectionExampleScenario.node[481].veinsmobility  posy  ETV
vector 32291  IntersectionExampleScenario.node[481].veinsmobility  speed  ETV
vector 32292  IntersectionExampleScenario.node[481].veinsmobility  acceleration  ETV
vector 32293  IntersectionExampleScenario.node[481].veinsmobility  co2emission  ETV
vector 32296  IntersectionExampleScenario.node[482].veinsmobility  posx  ETV
vector 32297  IntersectionExampleScenario.node[482].veinsmobility  posy  ETV
vector 32298  IntersectionExampleScenario.node[482].veinsmobility  speed  ETV
vector 32299  IntersectionExampleScenario.node[482].veinsmobility  acceleration  ETV
vector 32300  IntersectionExampleScenario.node[482].veinsmobility  co2emission  ETV
vector 32303  IntersectionExampleScenario.node[483].veinsmobility  posx  ETV
vector 32304  IntersectionExampleScenario.node[483].veinsmobility  posy  ETV
vector 32310  IntersectionExampleScenario.node[484].veinsmobility  posx  ETV
vector 32311  IntersectionExampleScenario.node[484].veinsmobility  posy  ETV
vector 32305  IntersectionExampleScenario.node[483].veinsmobility  speed  ETV
vector 32306  IntersectionExampleScenario.node[483].veinsmobility  acceleration  ETV
vector 32307  IntersectionExampleScenario.node[483].veinsmobility  co2emission  ETV
vector 32312  IntersectionExampleScenario.node[484].veinsmobility  speed  ETV
vector 32313  IntersectionExampleScenario.node[484].veinsmobility  acceleration  ETV
vector 32314  IntersectionExampleScenario.node[484].veinsmobility  co2emission  ETV
vector 32317  IntersectionExampleScenario.node[485].veinsmobility  posx  ETV
vector 32318  IntersectionExampleScenario.node[485].veinsmobility  posy  ETV
32202	16228907 8380 135513 140200 1731.25 1794.5 254 0.973 11.450879080643 619.10088752771 2885.5315144506
32201	16237287 7397 135513 140200 1731.25 1794.5 254 -28.083343505859 4 36.98334312439 1184.4871065352
32200	16244684 7914 135492 140200 1731 1794.5 255 0 15.375 2209.1001520157 31151.755525369
32199	16252598 9472 135471 140200 1730.75 1794.5 256 483.14999389648 483.14999389648 123686.3984375 59759082.650156
32198	16262070 9444 135471 140200 1730.75 1794.5 256 184.17810058594 732.67367553711 117114.0941925 57805523.957799
vector 32319  IntersectionExampleScenario.node[485].veinsmobility  speed  ETV
vector 32320  IntersectionExampleScenario.node[485].veinsmobility  acceleration  ETV
vector 32321  IntersectionExampleScenario.node[485].veinsmobility  co2emission  ETV
32237	16271764 5821 136798 140437 1755.75 1797 166 0.973 11.90022389248 551.50674466118 3273.5885092367
32236	16277585 5688 136798 140437 1755.75 1797 166 -3.1179351806641 2.5 39.529638290405 323.85506975754
32235	16283273 5871 136783 140437 1755.5 1797 167 5.6500000953674 16 2210.4591817856 30743.065806198
32234	16289144 6209 136768 140437 1755.25 1797 168 483.14999389648 733.2373046875 89428.875549316 48573715.259932
32233	16295353 6193 136768 140437 1755.25 1797 168 184.17810058594 486.85000610352 67144.058349609 28606702.661215
32244	16301546 5908 136911 140566 1757.75 1798.5 164 0.973 11.648172402475 565.46427369726 3277.4250564873
32243	16307454 5418 136911 140566 1757.75 1798.5 164 -4.5 2.5 39.869146347046 369.20215629336
32242	16312872 5874 136896 140566 1757.5 1798.5 165 5.6500000953674 15.64999961853 2292.948800087 32871.106967317
32241	16318746 6143 136881 140566 1757.25 1798.5 166 483.14999389648 483.14999389648 80202.898986816 38750030.155961
32240	16324889 6096 136881 140566 1757.25 1798.5 166 166.078125 733.75846862793 72702.77520752 36334794.614928
vector 32324  IntersectionExampleScenario.node[486].veinsmobility  posx  ETV
vector 32325  IntersectionExampleScenario.node[486].veinsmobility  posy  ETV
vector 32326  IntersectionExampleScenario.node[486].veinsmobility  speed  ETV
vector 32327  IntersectionExampleScenario.node[486].veinsmobility  acceleration  ETV
vector 32328  IntersectionExampleScenario.node[486].veinsmobility  co2emission  ETV
32209	16331391 7322 136304 140692 1744.25 1800 224 0.973 11.648172402475 571.50021982862 2884.4849458616
32208	16338713 6637 136304 140692 1744.25 1800 224 -25.939289093018 4 38.171648025513 1071.6027721495
32207	16345350 6871 136293 140692 1744 1800 225 0 15.64999961853 1877.6161470413 26494.388838756
32206	16352221 8330 136282 140692 1743.75 1800 226 184.17810058594 486.85000610352 94545.289703369 41543351.450651
32205	16360551 8358 136282 140692 1743.75 1800 226 317.59637451172 486.85000610352 106098.87484741 50182322.806016
32216	16368909 6536 136605 140692 1751.75 1800 194 0.973 10.756497587458 481.29778912739 2275.7839060091
32215	16375445 7002 136605 140692 1751.75 1800 194 -3.8510677814484 2.5000019073486 32.909410476685 307.20164140013
32214	16382447 7071 136594 140692 1751.5 1800 195 0 14.39999961853 1781.9408528525 21567.64246918
32213	16389518 7222 136583 140692 1751.25 1800 196 184.17810058594 625.43942260742 81463.714233398 36383107.621423
32212	16396740 7252 136583 140692 1751.25 1800 196 486.85000610352 486.85000610352 95422.601196289 46456493.974827
32223	16403992 6250 136697 140692 1753.75 1800 186 0.973 11.450879080643 530.56225812184 2697.2416592788
32222	16410242 6439 136697 140692 1753.75 1800 186 -4.5 2.5 39.700220108032 455.97076221277
32221	16416681 6606 136684 140692 1753.5 1800 187 0 15.617033004761 1735.2656405568 21918.162250872
32220	16423287 6915 136671 140692 1753.25 1800 188 166.078125 486.85000610352 73193.267272949 30410989.288599
32219	16430202 6956 136671 140692 1753.25 1800 188 373.22573852539 486.85000610352 89723.704223633 42937657.479031
32230	16437158 5608 136798 140692 1755.75 1800 178 0.973 11.200708441096 365.96544520616 1495.2076815072
32229	16442766 5015 136798 140692 1755.75 1800 178 -10.461450576782 4 -1.1000003814697 464.57601382063
32228	16447781 5343 136783 140692 1755.5 1800 179 0 15.02499961853 1171.1736273766 16044.475978049
32227	16453124 6659 136768 140692 1755.25 1800 180 486.85000610352 488.3235168457 87636.397705078 42667437.899719
32226	16459783 6653 136768 140692 1755.25 1800 180 493.81311035156 785.82187652588 102697.96274567 60308488.42972
32251	16466436 5054 137170 140692 1762 1800 153 0.973 11.00486315618 427.4637968584 2343.6272863722
32250	16471490 5339 137170 140692 1762 1800 153 -2.3146314620972 2.5 34.430742263794 276.34212633781
32249	16476829 5423 137153 140692 1761.75 1800 154 1.271458864212 14.75 1494.9774686098 17440.04946111
32248	16482252 5704 137136 140692 1761.5 1800 155 184.17810058594 486.85443115234 58871.243377686 23833851.213138
32247	16487956 5732 137136 140692 1761.5 1800 155 414.87142944336 486.85000610352 74640.258666992 35977022.684306
32258	16493688 5107 137208 140692 1762.5 1800 151 0.973 10.479044809729 447.31726671403 2297.763459133
32257	16498795 5224 137208 140692 1762.5 1800 151 -4.5 2.5 30.89999961853 391.20247948849
32256	16504019 5342 137189 140692 1762.25 1800 152 2.6690762042999 15.029257774353 1429.9669213295 16169.280756128
32255	16509361 5633 137170 140692 1762 1800 153 160.43438720703 483.14999389648 55353.514556885 21641705.311994
32254	16514994 5659 137170 140692 1762 1800 153 486.85000610352 521.44522094727 74755.860168457 36531132.177304
32265	16520653 3950 137784 140692 1770 1800 121 0.973 11.648172402475 295.44141764437 1471.3908878582
32264	16524603 3848 137784 140692 1770 1800 121 -7.0929417610168 2.5 -22.60000038147 322.24078740908
32263	16528451 4022 137761 140692 1769.75 1800 122 0 15.64999961853 1147.3596698046 16111.715776408
32262	16532473 4550 137740 140692 1769.5 1800 123 483.14999389648 483.14999389648 59427.449249268 28712371.742067
32261	16537023 4524 137740 140692 1769.5 1800 123 184.17810058594 471.60000610352 45179.721466064 17875985.276916
32272	16541547 4175 137807 140692 1770.25 1800 120 0.973 11.258848655319 294.40249558762 1326.5940105261
32271	16545722 4285 137807 140692 1770.25 1800 120 -4.5 2.5 -22.011689007282 280.79101715885
32270	16550007 4464 137784 140692 1770 1800 121 0 15.106469154358 1220.259942323 16371.633971203
32269	16554471 4513 137761 140692 1769.75 1800 122 483.14999389648 483.14999389648 58944.299255371 28478937.825465
32268	16558984 4492 137761 140692 1769.75 1800 122 159.76721191406 464.91143798828 41645.809234619 15621833.272374
32279	16563476 3394 138179 140692 1774.25 1800 104 0.973 12.099024792222 285.1578456609 1611.4453452062
32278	16566870 3753 138179 140692 1774.25 1800 104 -2.165943145752 2.5 -0.36613464355469 211.66288217504
32277	16570623 3858 138154 140692 1774 1800 105 2.5455009937286 16.27499961853 1120.6547801495 14441.505832483
32276	16574481 3921 138129 140692 1773.75 1800 106 486.85000610352 486.85000610352 51606.100646973 25124430.414957
32275	16578402 3915 138129 140692 1773.75 1800 106 507.49029541016 785.82187652588 66168.780784607 42233576.449734
32286	16582317 3452 138383 140692 1776.25 1800 96 0.973 11.200708441096 292.9878176771 1510.5997617661
32285	16585769 3092 138383 140692 1776.25 1800 96 -3.3945121765137 2.5 26.89999961853 148.27352981599
32284	16588861 3413 138356 140692 1776 1800 97 5.6500000953674 15.02499961853 1294.2236528397 17711.616165458
32283	16592274 3617 138329 140692 1775.75 1800 98 466.27319335938 785.82187652588 61785.251106262 39927159.834378
32282	16595891 3625 138329 140692 1775.75 1800 98 483.14999389648 483.14999389648 47348.699401855 22876523.827013
32293	16599516 2397 139084 140692 1783.25 1800 68 0.973 11.200708441096 244.27680786765 1495.8144383894
32292	16601913 2395 139084 140692 1783.25 1800 68 -2.1081352233887 2.5 29.365598678589 139.32934668209
32291	16604308 2537 139061 140692 1783 1800 69 5.6500000953674 15.02499961853 907.75053405762 12342.90081994
32290	16606845 2589 139037 140692 1782.75 1800 70 486.85000610352 486.85000610352 34079.500427246 16591604.991009
32289	16609434 2584 139037 140692 1782.75 1800 70 563.1315612793 785.82187652588 47572.83870697 32681395.254712
32300	16612018 2027 139387 140692 1786.5 1800 55 1.1008303524964 11.200708441096 214.41621715406 1277.8524296596
32299	16614045 1975 139387 140692 1786.5 1800 55 -0.29282760620117 2.5 38.469087600708 94.801006651327
32298	16616020 2060 139362 140692 1786.25 1800 56 5.6500000953674 15.668071746826 786.89730834961 11499.933876219
32297	16618080 2107 139337 140692 1786 1800 57 486.85000610352 486.85000610352 27750.4503479 13510306.921251
32296	16620187 2100 139337 140692 1786 1800 57 605.42526245117 797.07032012939 40556.679214478 29062226.798897
32307	16622287 1685 139618 140692 1788.75 1800 46 0.973 12.099024792222 205.62912050719 1459.842961555
32306	16623972 1614 139618 140692 1788.75 1800 46 -0.40308380126953 2.5 40.8880443573 106.62136794371
32305	16625586 1724 139589 140692 1788.5 1800 47 5.6500000953674 16.27499961853 658.81948661804 9696.6316973852
32304	16627310 1773 139562 140692 1788.25 1800 48 626.38479614258 785.82187652588 34376.490638733 24741007.017718
32303	16629083 1776 139562 140692 1788.25 1800 48 483.14999389648 483.14999389648 23191.199707031 11204827.996904
32314	16630859 1656 139647 140692 1789 1800 45 1.5237915469079 11.200708441096 184.06756660674 1179.7464443057
32313	16632515 1613 139647 140692 1789 1800 45 -0.17160415649414 2.5 36.813703536987 93.817300474333
32312	16634128 1691 139618 140692 1788.75 1800 46 5.6500000953674 15.02499961853 611.5165719986 8476.6639146194
32311	16635819 1716 139589 140692 1788.5 1800 47 184.17810058594 332.10437011719 11725.911682129 3027349.092097
32310	16637535 1738 139589 140692 1788.5 1800 47 486.85000610352 486.85000610352 22881.950286865 11140077.636821
32321	16639273 771 140250 140692 1795 1800 21 1.1319351608255 11.648172402475 141.97806720642 1201.1278927631
32320	16640044 606 140250 140692 1795 1800 21 -0.28734588623047 2.5 39.123373031616 100.17808693071
32319	16640650 803 140225 140692 1794.75 1800 22 5.6500000953674 15.64999961853 258.52074050903 3287.9143819572
32318	16641453 850 140200 140692 1794.5 1800 23 483.14999389648 483.14999389648 11112.449859619 5368980.08185
32317	16642303 833 140200 140692 1794.5 1800 23 184.17810058594 243.62622070312 4782.3239135742 1002397.4062535
32328	16643136 35 140692 140692 1800 1800 1 5.2162187258585 5.2162187258585 5.2162187258585 27.208937795997
32327	16643171 23 140692 140692 1800 1800 1 2.5 2.5 2.5 6.25
32326	16643194 73 140670 140692 1799.75 1800 2 5.6500000953674 6.2750000953674 11.925000190735 71.298127274513
32325	16643267 110 140649 140692 1799.5 1800 3 483.14999389648 483.14999389648 1449.4499816895 700301.74980652
32324	16643377 110 140649 140692 1799.5 1800 3 184.17810058594 185.51251220703 553.86871337891 102258.03765625
28918	16643487 626 0 140691 0 1800 31 0 26 407 6237
28919	16644113 640 0 140691 0 1800 31 0 157 2290 235424
