version 2
run nodebug-10-20200606-17:16:11-10964
attr configname nodebug
attr datetime 20200606-17:16:11
attr experiment nodebug
attr inifile omnetpp.ini
attr iterationvars ""
attr iterationvars2 $repetition=10
attr measurement ""
attr network "\"org.car2x.veins.modules.application.ExtTraCIScenarioManagerLaunchd.IntersectionExampleScenario\""
attr processid 10964
attr repetition 10
attr replication #10
attr resultdir results
attr runnumber 10
attr seedset 10
param **.coreDebug false
param **.debug false
param *.**.nic.mac1609_4.bitrate 18Mbps
param *.**.nic.mac1609_4.txPower 20mW
param *.**.nic.mac1609_4.useServiceChannel false
param *.**.nic.phy80211p.analogueModels "xmldoc(\"config.xml\")"
param *.**.nic.phy80211p.decider "xmldoc(\"config.xml\")"
param *.**.nic.phy80211p.sensitivity -89dBm
param *.**.nic.phy80211p.thermalNoise -110dBm
param *.**.nic.phy80211p.usePropagationDelay true
param *.**.nic.phy80211p.useThermalNoise true
param *.annotations.draw false
param *.connectionManager.alpha 2.0
param *.connectionManager.carrierFrequency "5.890e9 Hz"
param *.connectionManager.pMax 20mW
param *.connectionManager.sat -89dBm
param *.connectionManager.sendDirect true
param *.manager.autoShutdown true
param *.manager.host "\"localhost\""
param *.manager.launchConfig "xmldoc(\"paramics.launchd.xml\")"
param *.manager.margin 25
param *.manager.moduleDisplayString "\"\""
param *.manager.moduleName "\"node\""
param *.manager.moduleType "\"org.car2x.veins.nodes.Car\""
param *.manager.port 9999
param *.manager.updateInterval 250ms
param *.node[*0].veinsmobility.accidentCount 0
param *.node[*0].veinsmobility.accidentDuration 30s
param *.node[*0].veinsmobility.accidentStart 75s
param *.node[*].appl.LiderSelectZoneRadio 55.0
param *.node[*].appl.ShareDataZoneRadio 110.0
param *.node[*].appl.TiempoSemaforo 30.0
param *.node[*].appl.beaconInterval 1s
param *.node[*].appl.beaconPriority 3
param *.node[*].appl.dataOnSch false
param *.node[*].appl.dataPriority 2
param *.node[*].appl.debug false
param *.node[*].appl.headerLength "256 bit"
param *.node[*].appl.maxOffset 0.005s
param *.node[*].appl.sendBeacons false
param *.node[*].appl.sendData true
param *.node[*].applType "\"Dummy\""
param *.node[*].mobilityType "\"TraCIMobility\""
param *.node[*].mobilityType.debug true
param *.node[*].veinsmobility.x 0
param *.node[*].veinsmobility.y 0
param *.node[*].veinsmobility.z 1.895
param *.node[*].veinsmobilityType "\"org.car2x.veins.modules.mobility.traci.TraCIMobility\""
param *.node[*].veinsmobilityType.debug true
param *.playgroundSizeX 8500m
param *.playgroundSizeY 8500m
param *.playgroundSizeZ 50m
param *.world.use2D false
param *.world.useTorus false

scalar IntersectionExampleScenario.node[0].appl 	VehicleRemoved 	0
scalar IntersectionExampleScenario.node[0].appl 	ArrivedAtDest 	1
scalar IntersectionExampleScenario.node[0].appl 	IntersectionEnterTime 	5.75
scalar IntersectionExampleScenario.node[0].appl 	IntersectionExitTime 	38.593600485328
scalar IntersectionExampleScenario.node[0].appl 	NumberOfCollisions 	0
scalar IntersectionExampleScenario.node[0].nic.phy80211p 	busyTime 	0
scalar IntersectionExampleScenario.node[0].nic.mac1609_4 	ReceivedUnicastPackets 	0
scalar IntersectionExampleScenario.node[0].nic.mac1609_4 	ReceivedBroadcasts 	0
scalar IntersectionExampleScenario.node[0].nic.mac1609_4 	SentPackets 	0
scalar IntersectionExampleScenario.node[0].nic.mac1609_4 	SNIRLostPackets 	0
scalar IntersectionExampleScenario.node[0].nic.mac1609_4 	RXTXLostPackets 	0
scalar IntersectionExampleScenario.node[0].nic.mac1609_4 	TotalLostPackets 	0
scalar IntersectionExampleScenario.node[0].nic.mac1609_4 	DroppedPacketsInMac 	0
scalar IntersectionExampleScenario.node[0].nic.mac1609_4 	TooLittleTime 	0
scalar IntersectionExampleScenario.node[0].nic.mac1609_4 	TimesIntoBackoff 	0
scalar IntersectionExampleScenario.node[0].nic.mac1609_4 	SlotsBackoff 	0
scalar IntersectionExampleScenario.node[0].nic.mac1609_4 	NumInternalContention 	0
scalar IntersectionExampleScenario.node[0].nic.mac1609_4 	totalBusyTime 	0
scalar IntersectionExampleScenario.node[0].veinsmobility 	startTime 	5.75
scalar IntersectionExampleScenario.node[0].veinsmobility 	totalTime 	49.25
scalar IntersectionExampleScenario.node[0].veinsmobility 	stopTime 	55.25
scalar IntersectionExampleScenario.node[0].veinsmobility 	minSpeed 	0
scalar IntersectionExampleScenario.node[0].veinsmobility 	maxSpeed 	15.875
scalar IntersectionExampleScenario.node[0].veinsmobility 	totalDistance 	545.84717465789
scalar IntersectionExampleScenario.node[0].veinsmobility 	totalCO2Emission 	144.37948147963
scalar IntersectionExampleScenario.node[1].appl 	VehicleRemoved 	0
scalar IntersectionExampleScenario.node[1].appl 	ArrivedAtDest 	1
scalar IntersectionExampleScenario.node[1].appl 	IntersectionEnterTime 	8
scalar IntersectionExampleScenario.node[1].appl 	IntersectionExitTime 	41.34506633901
scalar IntersectionExampleScenario.node[1].appl 	NumberOfCollisions 	0
scalar IntersectionExampleScenario.node[1].nic.phy80211p 	busyTime 	0
scalar IntersectionExampleScenario.node[1].nic.mac1609_4 	ReceivedUnicastPackets 	0
scalar IntersectionExampleScenario.node[1].nic.mac1609_4 	ReceivedBroadcasts 	0
scalar IntersectionExampleScenario.node[1].nic.mac1609_4 	SentPackets 	0
scalar IntersectionExampleScenario.node[1].nic.mac1609_4 	SNIRLostPackets 	0
scalar IntersectionExampleScenario.node[1].nic.mac1609_4 	RXTXLostPackets 	0
scalar IntersectionExampleScenario.node[1].nic.mac1609_4 	TotalLostPackets 	0
scalar IntersectionExampleScenario.node[1].nic.mac1609_4 	DroppedPacketsInMac 	0
scalar IntersectionExampleScenario.node[1].nic.mac1609_4 	TooLittleTime 	0
scalar IntersectionExampleScenario.node[1].nic.mac1609_4 	TimesIntoBackoff 	0
scalar IntersectionExampleScenario.node[1].nic.mac1609_4 	SlotsBackoff 	0
scalar IntersectionExampleScenario.node[1].nic.mac1609_4 	NumInternalContention 	0
scalar IntersectionExampleScenario.node[1].nic.mac1609_4 	totalBusyTime 	0
scalar IntersectionExampleScenario.node[1].veinsmobility 	startTime 	8
scalar IntersectionExampleScenario.node[1].veinsmobility 	totalTime 	50
scalar IntersectionExampleScenario.node[1].veinsmobility 	stopTime 	58.25
scalar IntersectionExampleScenario.node[1].veinsmobility 	minSpeed 	0
scalar IntersectionExampleScenario.node[1].veinsmobility 	maxSpeed 	15.64999961853
scalar IntersectionExampleScenario.node[1].veinsmobility 	totalDistance 	561.99904273045
scalar IntersectionExampleScenario.node[1].veinsmobility 	totalCO2Emission 	142.64131549843
scalar IntersectionExampleScenario.node[4].appl 	VehicleRemoved 	0
scalar IntersectionExampleScenario.node[4].appl 	ArrivedAtDest 	1
scalar IntersectionExampleScenario.node[4].appl 	IntersectionEnterTime 	19
scalar IntersectionExampleScenario.node[4].appl 	IntersectionExitTime 	42.089321973181
scalar IntersectionExampleScenario.node[4].appl 	NumberOfCollisions 	0
scalar IntersectionExampleScenario.node[4].nic.phy80211p 	busyTime 	0
scalar IntersectionExampleScenario.node[4].nic.mac1609_4 	ReceivedUnicastPackets 	0
scalar IntersectionExampleScenario.node[4].nic.mac1609_4 	ReceivedBroadcasts 	0
scalar IntersectionExampleScenario.node[4].nic.mac1609_4 	SentPackets 	0
scalar IntersectionExampleScenario.node[4].nic.mac1609_4 	SNIRLostPackets 	0
scalar IntersectionExampleScenario.node[4].nic.mac1609_4 	RXTXLostPackets 	0
scalar IntersectionExampleScenario.node[4].nic.mac1609_4 	TotalLostPackets 	0
scalar IntersectionExampleScenario.node[4].nic.mac1609_4 	DroppedPacketsInMac 	0
scalar IntersectionExampleScenario.node[4].nic.mac1609_4 	TooLittleTime 	0
scalar IntersectionExampleScenario.node[4].nic.mac1609_4 	TimesIntoBackoff 	0
scalar IntersectionExampleScenario.node[4].nic.mac1609_4 	SlotsBackoff 	0
scalar IntersectionExampleScenario.node[4].nic.mac1609_4 	NumInternalContention 	0
scalar IntersectionExampleScenario.node[4].nic.mac1609_4 	totalBusyTime 	0
scalar IntersectionExampleScenario.node[4].veinsmobility 	startTime 	19
scalar IntersectionExampleScenario.node[4].veinsmobility 	totalTime 	39.25
scalar IntersectionExampleScenario.node[4].veinsmobility 	stopTime 	58.5
scalar IntersectionExampleScenario.node[4].veinsmobility 	minSpeed 	5.6500000953674
scalar IntersectionExampleScenario.node[4].veinsmobility 	maxSpeed 	15.5
scalar IntersectionExampleScenario.node[4].veinsmobility 	totalDistance 	552.04502105713
scalar IntersectionExampleScenario.node[4].veinsmobility 	totalCO2Emission 	116.05476691069
scalar IntersectionExampleScenario.node[6].appl 	VehicleRemoved 	0
scalar IntersectionExampleScenario.node[6].appl 	ArrivedAtDest 	1
scalar IntersectionExampleScenario.node[6].appl 	IntersectionEnterTime 	27
scalar IntersectionExampleScenario.node[6].appl 	IntersectionExitTime 	50.564142280375
scalar IntersectionExampleScenario.node[6].appl 	NumberOfCollisions 	0
scalar IntersectionExampleScenario.node[6].nic.phy80211p 	busyTime 	0
scalar IntersectionExampleScenario.node[6].nic.mac1609_4 	ReceivedUnicastPackets 	0
scalar IntersectionExampleScenario.node[6].nic.mac1609_4 	ReceivedBroadcasts 	0
scalar IntersectionExampleScenario.node[6].nic.mac1609_4 	SentPackets 	0
scalar IntersectionExampleScenario.node[6].nic.mac1609_4 	SNIRLostPackets 	0
scalar IntersectionExampleScenario.node[6].nic.mac1609_4 	RXTXLostPackets 	0
scalar IntersectionExampleScenario.node[6].nic.mac1609_4 	TotalLostPackets 	0
scalar IntersectionExampleScenario.node[6].nic.mac1609_4 	DroppedPacketsInMac 	0
scalar IntersectionExampleScenario.node[6].nic.mac1609_4 	TooLittleTime 	0
scalar IntersectionExampleScenario.node[6].nic.mac1609_4 	TimesIntoBackoff 	0
scalar IntersectionExampleScenario.node[6].nic.mac1609_4 	SlotsBackoff 	0
scalar IntersectionExampleScenario.node[6].nic.mac1609_4 	NumInternalContention 	0
scalar IntersectionExampleScenario.node[6].nic.mac1609_4 	totalBusyTime 	0
scalar IntersectionExampleScenario.node[6].veinsmobility 	startTime 	27
scalar IntersectionExampleScenario.node[6].veinsmobility 	totalTime 	40.25
scalar IntersectionExampleScenario.node[6].veinsmobility 	stopTime 	67.5
scalar IntersectionExampleScenario.node[6].veinsmobility 	minSpeed 	5.6500000953674
scalar IntersectionExampleScenario.node[6].veinsmobility 	maxSpeed 	15.02499961853
scalar IntersectionExampleScenario.node[6].veinsmobility 	totalDistance 	554.7974395752
scalar IntersectionExampleScenario.node[6].veinsmobility 	totalCO2Emission 	114.02932804273
scalar IntersectionExampleScenario.node[2].appl 	VehicleRemoved 	0
scalar IntersectionExampleScenario.node[2].appl 	ArrivedAtDest 	1
scalar IntersectionExampleScenario.node[2].appl 	IntersectionEnterTime 	12.25
scalar IntersectionExampleScenario.node[2].appl 	IntersectionExitTime 	52.36917416798
scalar IntersectionExampleScenario.node[2].appl 	NumberOfCollisions 	0
scalar IntersectionExampleScenario.node[2].nic.phy80211p 	busyTime 	0
scalar IntersectionExampleScenario.node[2].nic.mac1609_4 	ReceivedUnicastPackets 	0
scalar IntersectionExampleScenario.node[2].nic.mac1609_4 	ReceivedBroadcasts 	0
scalar IntersectionExampleScenario.node[2].nic.mac1609_4 	SentPackets 	0
scalar IntersectionExampleScenario.node[2].nic.mac1609_4 	SNIRLostPackets 	0
scalar IntersectionExampleScenario.node[2].nic.mac1609_4 	RXTXLostPackets 	0
scalar IntersectionExampleScenario.node[2].nic.mac1609_4 	TotalLostPackets 	0
scalar IntersectionExampleScenario.node[2].nic.mac1609_4 	DroppedPacketsInMac 	0
scalar IntersectionExampleScenario.node[2].nic.mac1609_4 	TooLittleTime 	0
scalar IntersectionExampleScenario.node[2].nic.mac1609_4 	TimesIntoBackoff 	0
scalar IntersectionExampleScenario.node[2].nic.mac1609_4 	SlotsBackoff 	0
scalar IntersectionExampleScenario.node[2].nic.mac1609_4 	NumInternalContention 	0
scalar IntersectionExampleScenario.node[2].nic.mac1609_4 	totalBusyTime 	0
scalar IntersectionExampleScenario.node[2].veinsmobility 	startTime 	12.25
scalar IntersectionExampleScenario.node[2].veinsmobility 	totalTime 	55.75
scalar IntersectionExampleScenario.node[2].veinsmobility 	stopTime 	68.25
scalar IntersectionExampleScenario.node[2].veinsmobility 	minSpeed 	0
scalar IntersectionExampleScenario.node[2].veinsmobility 	maxSpeed 	16
scalar IntersectionExampleScenario.node[2].veinsmobility 	totalDistance 	550.43745531192
scalar IntersectionExampleScenario.node[2].veinsmobility 	totalCO2Emission 	150.85331089041
scalar IntersectionExampleScenario.node[3].appl 	VehicleRemoved 	0
scalar IntersectionExampleScenario.node[3].appl 	ArrivedAtDest 	1
scalar IntersectionExampleScenario.node[3].appl 	IntersectionEnterTime 	14.25
scalar IntersectionExampleScenario.node[3].appl 	IntersectionExitTime 	53.326565759198
scalar IntersectionExampleScenario.node[3].appl 	NumberOfCollisions 	0
scalar IntersectionExampleScenario.node[3].nic.phy80211p 	busyTime 	0
scalar IntersectionExampleScenario.node[3].nic.mac1609_4 	ReceivedUnicastPackets 	0
scalar IntersectionExampleScenario.node[3].nic.mac1609_4 	ReceivedBroadcasts 	0
scalar IntersectionExampleScenario.node[3].nic.mac1609_4 	SentPackets 	0
scalar IntersectionExampleScenario.node[3].nic.mac1609_4 	SNIRLostPackets 	0
scalar IntersectionExampleScenario.node[3].nic.mac1609_4 	RXTXLostPackets 	0
scalar IntersectionExampleScenario.node[3].nic.mac1609_4 	TotalLostPackets 	0
scalar IntersectionExampleScenario.node[3].nic.mac1609_4 	DroppedPacketsInMac 	0
scalar IntersectionExampleScenario.node[3].nic.mac1609_4 	TooLittleTime 	0
scalar IntersectionExampleScenario.node[3].nic.mac1609_4 	TimesIntoBackoff 	0
scalar IntersectionExampleScenario.node[3].nic.mac1609_4 	SlotsBackoff 	0
scalar IntersectionExampleScenario.node[3].nic.mac1609_4 	NumInternalContention 	0
scalar IntersectionExampleScenario.node[3].nic.mac1609_4 	totalBusyTime 	0
scalar IntersectionExampleScenario.node[3].veinsmobility 	startTime 	14.25
scalar IntersectionExampleScenario.node[3].veinsmobility 	totalTime 	55.25
scalar IntersectionExampleScenario.node[3].veinsmobility 	stopTime 	69.75
scalar IntersectionExampleScenario.node[3].veinsmobility 	minSpeed 	0
scalar IntersectionExampleScenario.node[3].veinsmobility 	maxSpeed 	15.5
scalar IntersectionExampleScenario.node[3].veinsmobility 	totalDistance 	569.35883331299
scalar IntersectionExampleScenario.node[3].veinsmobility 	totalCO2Emission 	146.0076663071
scalar IntersectionExampleScenario.node[8].appl 	VehicleRemoved 	0
scalar IntersectionExampleScenario.node[8].appl 	ArrivedAtDest 	1
scalar IntersectionExampleScenario.node[8].appl 	IntersectionEnterTime 	29.25
scalar IntersectionExampleScenario.node[8].appl 	IntersectionExitTime 	55.787587507162
scalar IntersectionExampleScenario.node[8].appl 	NumberOfCollisions 	0
scalar IntersectionExampleScenario.node[8].nic.phy80211p 	busyTime 	0
scalar IntersectionExampleScenario.node[8].nic.mac1609_4 	ReceivedUnicastPackets 	0
scalar IntersectionExampleScenario.node[8].nic.mac1609_4 	ReceivedBroadcasts 	0
scalar IntersectionExampleScenario.node[8].nic.mac1609_4 	SentPackets 	0
scalar IntersectionExampleScenario.node[8].nic.mac1609_4 	SNIRLostPackets 	0
scalar IntersectionExampleScenario.node[8].nic.mac1609_4 	RXTXLostPackets 	0
scalar IntersectionExampleScenario.node[8].nic.mac1609_4 	TotalLostPackets 	0
scalar IntersectionExampleScenario.node[8].nic.mac1609_4 	DroppedPacketsInMac 	0
scalar IntersectionExampleScenario.node[8].nic.mac1609_4 	TooLittleTime 	0
scalar IntersectionExampleScenario.node[8].nic.mac1609_4 	TimesIntoBackoff 	0
scalar IntersectionExampleScenario.node[8].nic.mac1609_4 	SlotsBackoff 	0
scalar IntersectionExampleScenario.node[8].nic.mac1609_4 	NumInternalContention 	0
scalar IntersectionExampleScenario.node[8].nic.mac1609_4 	totalBusyTime 	0
scalar IntersectionExampleScenario.node[8].veinsmobility 	startTime 	29.25
scalar IntersectionExampleScenario.node[8].veinsmobility 	totalTime 	43.25
scalar IntersectionExampleScenario.node[8].veinsmobility 	stopTime 	72.75
scalar IntersectionExampleScenario.node[8].veinsmobility 	minSpeed 	5.6500000953674
scalar IntersectionExampleScenario.node[8].veinsmobility 	maxSpeed 	15.02499961853
scalar IntersectionExampleScenario.node[8].veinsmobility 	totalDistance 	553.21628570557
scalar IntersectionExampleScenario.node[8].veinsmobility 	totalCO2Emission 	126.12738611335
scalar IntersectionExampleScenario.node[10].appl 	VehicleRemoved 	0
scalar IntersectionExampleScenario.node[10].appl 	ArrivedAtDest 	1
scalar IntersectionExampleScenario.node[10].appl 	IntersectionEnterTime 	34
scalar IntersectionExampleScenario.node[10].appl 	IntersectionExitTime 	58.345860005706
scalar IntersectionExampleScenario.node[10].appl 	NumberOfCollisions 	0
scalar IntersectionExampleScenario.node[10].nic.phy80211p 	busyTime 	0
scalar IntersectionExampleScenario.node[10].nic.mac1609_4 	ReceivedUnicastPackets 	0
scalar IntersectionExampleScenario.node[10].nic.mac1609_4 	ReceivedBroadcasts 	0
scalar IntersectionExampleScenario.node[10].nic.mac1609_4 	SentPackets 	0
scalar IntersectionExampleScenario.node[10].nic.mac1609_4 	SNIRLostPackets 	0
scalar IntersectionExampleScenario.node[10].nic.mac1609_4 	RXTXLostPackets 	0
scalar IntersectionExampleScenario.node[10].nic.mac1609_4 	TotalLostPackets 	0
scalar IntersectionExampleScenario.node[10].nic.mac1609_4 	DroppedPacketsInMac 	0
scalar IntersectionExampleScenario.node[10].nic.mac1609_4 	TooLittleTime 	0
scalar IntersectionExampleScenario.node[10].nic.mac1609_4 	TimesIntoBackoff 	0
scalar IntersectionExampleScenario.node[10].nic.mac1609_4 	SlotsBackoff 	0
scalar IntersectionExampleScenario.node[10].nic.mac1609_4 	NumInternalContention 	0
scalar IntersectionExampleScenario.node[10].nic.mac1609_4 	totalBusyTime 	0
scalar IntersectionExampleScenario.node[10].veinsmobility 	startTime 	34
scalar IntersectionExampleScenario.node[10].veinsmobility 	totalTime 	40.75
scalar IntersectionExampleScenario.node[10].veinsmobility 	stopTime 	75
scalar IntersectionExampleScenario.node[10].veinsmobility 	minSpeed 	5.6500000953674
scalar IntersectionExampleScenario.node[10].veinsmobility 	maxSpeed 	15.02499961853
scalar IntersectionExampleScenario.node[10].veinsmobility 	totalDistance 	554.05960845947
scalar IntersectionExampleScenario.node[10].veinsmobility 	totalCO2Emission 	113.54176350189
scalar IntersectionExampleScenario.node[11].appl 	VehicleRemoved 	0
scalar IntersectionExampleScenario.node[11].appl 	ArrivedAtDest 	1
scalar IntersectionExampleScenario.node[11].appl 	IntersectionEnterTime 	34.5
scalar IntersectionExampleScenario.node[11].appl 	IntersectionExitTime 	61.109049057297
scalar IntersectionExampleScenario.node[11].appl 	NumberOfCollisions 	0
scalar IntersectionExampleScenario.node[11].nic.phy80211p 	busyTime 	0
scalar IntersectionExampleScenario.node[11].nic.mac1609_4 	ReceivedUnicastPackets 	0
scalar IntersectionExampleScenario.node[11].nic.mac1609_4 	ReceivedBroadcasts 	0
scalar IntersectionExampleScenario.node[11].nic.mac1609_4 	SentPackets 	0
scalar IntersectionExampleScenario.node[11].nic.mac1609_4 	SNIRLostPackets 	0
scalar IntersectionExampleScenario.node[11].nic.mac1609_4 	RXTXLostPackets 	0
scalar IntersectionExampleScenario.node[11].nic.mac1609_4 	TotalLostPackets 	0
scalar IntersectionExampleScenario.node[11].nic.mac1609_4 	DroppedPacketsInMac 	0
scalar IntersectionExampleScenario.node[11].nic.mac1609_4 	TooLittleTime 	0
scalar IntersectionExampleScenario.node[11].nic.mac1609_4 	TimesIntoBackoff 	0
scalar IntersectionExampleScenario.node[11].nic.mac1609_4 	SlotsBackoff 	0
scalar IntersectionExampleScenario.node[11].nic.mac1609_4 	NumInternalContention 	0
scalar IntersectionExampleScenario.node[11].nic.mac1609_4 	totalBusyTime 	0
scalar IntersectionExampleScenario.node[11].veinsmobility 	startTime 	34.5
scalar IntersectionExampleScenario.node[11].veinsmobility 	totalTime 	43.5
scalar IntersectionExampleScenario.node[11].veinsmobility 	stopTime 	78.25
scalar IntersectionExampleScenario.node[11].veinsmobility 	minSpeed 	5.6500000953674
scalar IntersectionExampleScenario.node[11].veinsmobility 	maxSpeed 	15.25
scalar IntersectionExampleScenario.node[11].veinsmobility 	totalDistance 	569.72153843925
scalar IntersectionExampleScenario.node[11].veinsmobility 	totalCO2Emission 	136.79727396015
scalar IntersectionExampleScenario.node[5].appl 	VehicleRemoved 	0
scalar IntersectionExampleScenario.node[5].appl 	ArrivedAtDest 	1
scalar IntersectionExampleScenario.node[5].appl 	IntersectionEnterTime 	22.75
scalar IntersectionExampleScenario.node[5].appl 	IntersectionExitTime 	63.334266702353
scalar IntersectionExampleScenario.node[5].appl 	NumberOfCollisions 	0
scalar IntersectionExampleScenario.node[5].nic.phy80211p 	busyTime 	0
scalar IntersectionExampleScenario.node[5].nic.mac1609_4 	ReceivedUnicastPackets 	0
scalar IntersectionExampleScenario.node[5].nic.mac1609_4 	ReceivedBroadcasts 	0
scalar IntersectionExampleScenario.node[5].nic.mac1609_4 	SentPackets 	0
scalar IntersectionExampleScenario.node[5].nic.mac1609_4 	SNIRLostPackets 	0
scalar IntersectionExampleScenario.node[5].nic.mac1609_4 	RXTXLostPackets 	0
scalar IntersectionExampleScenario.node[5].nic.mac1609_4 	TotalLostPackets 	0
scalar IntersectionExampleScenario.node[5].nic.mac1609_4 	DroppedPacketsInMac 	0
scalar IntersectionExampleScenario.node[5].nic.mac1609_4 	TooLittleTime 	0
scalar IntersectionExampleScenario.node[5].nic.mac1609_4 	TimesIntoBackoff 	0
scalar IntersectionExampleScenario.node[5].nic.mac1609_4 	SlotsBackoff 	0
scalar IntersectionExampleScenario.node[5].nic.mac1609_4 	NumInternalContention 	0
scalar IntersectionExampleScenario.node[5].nic.mac1609_4 	totalBusyTime 	0
scalar IntersectionExampleScenario.node[5].veinsmobility 	startTime 	22.75
scalar IntersectionExampleScenario.node[5].veinsmobility 	totalTime 	56.75
scalar IntersectionExampleScenario.node[5].veinsmobility 	stopTime 	79.75
scalar IntersectionExampleScenario.node[5].veinsmobility 	minSpeed 	0
scalar IntersectionExampleScenario.node[5].veinsmobility 	maxSpeed 	15.375
scalar IntersectionExampleScenario.node[5].veinsmobility 	totalDistance 	552.21952819824
scalar IntersectionExampleScenario.node[5].veinsmobility 	totalCO2Emission 	146.51309236752
scalar IntersectionExampleScenario.node[7].appl 	VehicleRemoved 	0
scalar IntersectionExampleScenario.node[7].appl 	ArrivedAtDest 	1
scalar IntersectionExampleScenario.node[7].appl 	IntersectionEnterTime 	27.5
scalar IntersectionExampleScenario.node[7].appl 	IntersectionExitTime 	64.315205894178
scalar IntersectionExampleScenario.node[7].appl 	NumberOfCollisions 	0
scalar IntersectionExampleScenario.node[7].nic.phy80211p 	busyTime 	0
scalar IntersectionExampleScenario.node[7].nic.mac1609_4 	ReceivedUnicastPackets 	0
scalar IntersectionExampleScenario.node[7].nic.mac1609_4 	ReceivedBroadcasts 	0
scalar IntersectionExampleScenario.node[7].nic.mac1609_4 	SentPackets 	0
scalar IntersectionExampleScenario.node[7].nic.mac1609_4 	SNIRLostPackets 	0
scalar IntersectionExampleScenario.node[7].nic.mac1609_4 	RXTXLostPackets 	0
scalar IntersectionExampleScenario.node[7].nic.mac1609_4 	TotalLostPackets 	0
scalar IntersectionExampleScenario.node[7].nic.mac1609_4 	DroppedPacketsInMac 	0
scalar IntersectionExampleScenario.node[7].nic.mac1609_4 	TooLittleTime 	0
scalar IntersectionExampleScenario.node[7].nic.mac1609_4 	TimesIntoBackoff 	0
scalar IntersectionExampleScenario.node[7].nic.mac1609_4 	SlotsBackoff 	0
scalar IntersectionExampleScenario.node[7].nic.mac1609_4 	NumInternalContention 	0
scalar IntersectionExampleScenario.node[7].nic.mac1609_4 	totalBusyTime 	0
scalar IntersectionExampleScenario.node[7].veinsmobility 	startTime 	27.5
scalar IntersectionExampleScenario.node[7].veinsmobility 	totalTime 	52.75
scalar IntersectionExampleScenario.node[7].veinsmobility 	stopTime 	80.5
scalar IntersectionExampleScenario.node[7].veinsmobility 	minSpeed 	0
scalar IntersectionExampleScenario.node[7].veinsmobility 	maxSpeed 	15.719532012939
scalar IntersectionExampleScenario.node[7].veinsmobility 	totalDistance 	550.63062750666
scalar IntersectionExampleScenario.node[7].veinsmobility 	totalCO2Emission 	147.25345016788
scalar IntersectionExampleScenario.node[9].appl 	VehicleRemoved 	0
scalar IntersectionExampleScenario.node[9].appl 	ArrivedAtDest 	1
scalar IntersectionExampleScenario.node[9].appl 	IntersectionEnterTime 	32.25
scalar IntersectionExampleScenario.node[9].appl 	IntersectionExitTime 	66.328285893745
scalar IntersectionExampleScenario.node[9].appl 	NumberOfCollisions 	0
scalar IntersectionExampleScenario.node[9].nic.phy80211p 	busyTime 	0
scalar IntersectionExampleScenario.node[9].nic.mac1609_4 	ReceivedUnicastPackets 	0
scalar IntersectionExampleScenario.node[9].nic.mac1609_4 	ReceivedBroadcasts 	0
scalar IntersectionExampleScenario.node[9].nic.mac1609_4 	SentPackets 	0
scalar IntersectionExampleScenario.node[9].nic.mac1609_4 	SNIRLostPackets 	0
scalar IntersectionExampleScenario.node[9].nic.mac1609_4 	RXTXLostPackets 	0
scalar IntersectionExampleScenario.node[9].nic.mac1609_4 	TotalLostPackets 	0
scalar IntersectionExampleScenario.node[9].nic.mac1609_4 	DroppedPacketsInMac 	0
scalar IntersectionExampleScenario.node[9].nic.mac1609_4 	TooLittleTime 	0
scalar IntersectionExampleScenario.node[9].nic.mac1609_4 	TimesIntoBackoff 	0
scalar IntersectionExampleScenario.node[9].nic.mac1609_4 	SlotsBackoff 	0
scalar IntersectionExampleScenario.node[9].nic.mac1609_4 	NumInternalContention 	0
scalar IntersectionExampleScenario.node[9].nic.mac1609_4 	totalBusyTime 	0
scalar IntersectionExampleScenario.node[9].veinsmobility 	startTime 	32.25
scalar IntersectionExampleScenario.node[9].veinsmobility 	totalTime 	50
scalar IntersectionExampleScenario.node[9].veinsmobility 	stopTime 	82.5
scalar IntersectionExampleScenario.node[9].veinsmobility 	minSpeed 	1.3378003835678
scalar IntersectionExampleScenario.node[9].veinsmobility 	maxSpeed 	16.27499961853
scalar IntersectionExampleScenario.node[9].veinsmobility 	totalDistance 	550.7215636739
scalar IntersectionExampleScenario.node[9].veinsmobility 	totalCO2Emission 	142.67936509134
scalar IntersectionExampleScenario.node[13].appl 	VehicleRemoved 	0
scalar IntersectionExampleScenario.node[13].appl 	ArrivedAtDest 	1
scalar IntersectionExampleScenario.node[13].appl 	IntersectionEnterTime 	39.5
scalar IntersectionExampleScenario.node[13].appl 	IntersectionExitTime 	68.32442995056
scalar IntersectionExampleScenario.node[13].appl 	NumberOfCollisions 	0
scalar IntersectionExampleScenario.node[13].nic.phy80211p 	busyTime 	0
scalar IntersectionExampleScenario.node[13].nic.mac1609_4 	ReceivedUnicastPackets 	0
scalar IntersectionExampleScenario.node[13].nic.mac1609_4 	ReceivedBroadcasts 	0
scalar IntersectionExampleScenario.node[13].nic.mac1609_4 	SentPackets 	0
scalar IntersectionExampleScenario.node[13].nic.mac1609_4 	SNIRLostPackets 	0
scalar IntersectionExampleScenario.node[13].nic.mac1609_4 	RXTXLostPackets 	0
scalar IntersectionExampleScenario.node[13].nic.mac1609_4 	TotalLostPackets 	0
scalar IntersectionExampleScenario.node[13].nic.mac1609_4 	DroppedPacketsInMac 	0
scalar IntersectionExampleScenario.node[13].nic.mac1609_4 	TooLittleTime 	0
scalar IntersectionExampleScenario.node[13].nic.mac1609_4 	TimesIntoBackoff 	0
scalar IntersectionExampleScenario.node[13].nic.mac1609_4 	SlotsBackoff 	0
scalar IntersectionExampleScenario.node[13].nic.mac1609_4 	NumInternalContention 	0
scalar IntersectionExampleScenario.node[13].nic.mac1609_4 	totalBusyTime 	0
scalar IntersectionExampleScenario.node[13].veinsmobility 	startTime 	39.5
scalar IntersectionExampleScenario.node[13].veinsmobility 	totalTime 	44.5
scalar IntersectionExampleScenario.node[13].veinsmobility 	stopTime 	84.25
scalar IntersectionExampleScenario.node[13].veinsmobility 	minSpeed 	5.2663998603821
scalar IntersectionExampleScenario.node[13].veinsmobility 	maxSpeed 	15.64999961853
scalar IntersectionExampleScenario.node[13].veinsmobility 	totalDistance 	554.39993286133
scalar IntersectionExampleScenario.node[13].veinsmobility 	totalCO2Emission 	133.85876155462
scalar IntersectionExampleScenario.node[15].appl 	VehicleRemoved 	0
scalar IntersectionExampleScenario.node[15].appl 	ArrivedAtDest 	1
scalar IntersectionExampleScenario.node[15].appl 	IntersectionEnterTime 	42.25
scalar IntersectionExampleScenario.node[15].appl 	IntersectionExitTime 	70.296564993681
scalar IntersectionExampleScenario.node[15].appl 	NumberOfCollisions 	0
scalar IntersectionExampleScenario.node[15].nic.phy80211p 	busyTime 	0
scalar IntersectionExampleScenario.node[15].nic.mac1609_4 	ReceivedUnicastPackets 	0
scalar IntersectionExampleScenario.node[15].nic.mac1609_4 	ReceivedBroadcasts 	0
scalar IntersectionExampleScenario.node[15].nic.mac1609_4 	SentPackets 	0
scalar IntersectionExampleScenario.node[15].nic.mac1609_4 	SNIRLostPackets 	0
scalar IntersectionExampleScenario.node[15].nic.mac1609_4 	RXTXLostPackets 	0
scalar IntersectionExampleScenario.node[15].nic.mac1609_4 	TotalLostPackets 	0
scalar IntersectionExampleScenario.node[15].nic.mac1609_4 	DroppedPacketsInMac 	0
scalar IntersectionExampleScenario.node[15].nic.mac1609_4 	TooLittleTime 	0
scalar IntersectionExampleScenario.node[15].nic.mac1609_4 	TimesIntoBackoff 	0
scalar IntersectionExampleScenario.node[15].nic.mac1609_4 	SlotsBackoff 	0
scalar IntersectionExampleScenario.node[15].nic.mac1609_4 	NumInternalContention 	0
scalar IntersectionExampleScenario.node[15].nic.mac1609_4 	totalBusyTime 	0
scalar IntersectionExampleScenario.node[15].veinsmobility 	startTime 	42.25
scalar IntersectionExampleScenario.node[15].veinsmobility 	totalTime 	44.25
scalar IntersectionExampleScenario.node[15].veinsmobility 	stopTime 	86.75
scalar IntersectionExampleScenario.node[15].veinsmobility 	minSpeed 	5.6500000953674
scalar IntersectionExampleScenario.node[15].veinsmobility 	maxSpeed 	15.64999961853
scalar IntersectionExampleScenario.node[15].veinsmobility 	totalDistance 	563.475713155
scalar IntersectionExampleScenario.node[15].veinsmobility 	totalCO2Emission 	137.50329829944
scalar IntersectionExampleScenario.node[14].appl 	VehicleRemoved 	0
scalar IntersectionExampleScenario.node[14].appl 	ArrivedAtDest 	1
scalar IntersectionExampleScenario.node[14].appl 	IntersectionEnterTime 	40
scalar IntersectionExampleScenario.node[14].appl 	IntersectionExitTime 	73.518683917122
scalar IntersectionExampleScenario.node[14].appl 	NumberOfCollisions 	0
scalar IntersectionExampleScenario.node[14].nic.phy80211p 	busyTime 	0
scalar IntersectionExampleScenario.node[14].nic.mac1609_4 	ReceivedUnicastPackets 	0
scalar IntersectionExampleScenario.node[14].nic.mac1609_4 	ReceivedBroadcasts 	0
scalar IntersectionExampleScenario.node[14].nic.mac1609_4 	SentPackets 	0
scalar IntersectionExampleScenario.node[14].nic.mac1609_4 	SNIRLostPackets 	0
scalar IntersectionExampleScenario.node[14].nic.mac1609_4 	RXTXLostPackets 	0
scalar IntersectionExampleScenario.node[14].nic.mac1609_4 	TotalLostPackets 	0
scalar IntersectionExampleScenario.node[14].nic.mac1609_4 	DroppedPacketsInMac 	0
scalar IntersectionExampleScenario.node[14].nic.mac1609_4 	TooLittleTime 	0
scalar IntersectionExampleScenario.node[14].nic.mac1609_4 	TimesIntoBackoff 	0
scalar IntersectionExampleScenario.node[14].nic.mac1609_4 	SlotsBackoff 	0
scalar IntersectionExampleScenario.node[14].nic.mac1609_4 	NumInternalContention 	0
scalar IntersectionExampleScenario.node[14].nic.mac1609_4 	totalBusyTime 	0
scalar IntersectionExampleScenario.node[14].veinsmobility 	startTime 	40
scalar IntersectionExampleScenario.node[14].veinsmobility 	totalTime 	50
scalar IntersectionExampleScenario.node[14].veinsmobility 	stopTime 	90.25
scalar IntersectionExampleScenario.node[14].veinsmobility 	minSpeed 	0
scalar IntersectionExampleScenario.node[14].veinsmobility 	maxSpeed 	15.875
scalar IntersectionExampleScenario.node[14].veinsmobility 	totalDistance 	545.34084988982
scalar IntersectionExampleScenario.node[14].veinsmobility 	totalCO2Emission 	144.40290232322
scalar IntersectionExampleScenario.node[20].appl 	VehicleRemoved 	0
scalar IntersectionExampleScenario.node[20].appl 	ArrivedAtDest 	1
scalar IntersectionExampleScenario.node[20].appl 	IntersectionEnterTime 	56.5
scalar IntersectionExampleScenario.node[20].appl 	IntersectionExitTime 	79.324729581334
scalar IntersectionExampleScenario.node[20].appl 	NumberOfCollisions 	0
scalar IntersectionExampleScenario.node[20].nic.phy80211p 	busyTime 	0
scalar IntersectionExampleScenario.node[20].nic.mac1609_4 	ReceivedUnicastPackets 	0
scalar IntersectionExampleScenario.node[20].nic.mac1609_4 	ReceivedBroadcasts 	0
scalar IntersectionExampleScenario.node[20].nic.mac1609_4 	SentPackets 	0
scalar IntersectionExampleScenario.node[20].nic.mac1609_4 	SNIRLostPackets 	0
scalar IntersectionExampleScenario.node[20].nic.mac1609_4 	RXTXLostPackets 	0
scalar IntersectionExampleScenario.node[20].nic.mac1609_4 	TotalLostPackets 	0
scalar IntersectionExampleScenario.node[20].nic.mac1609_4 	DroppedPacketsInMac 	0
scalar IntersectionExampleScenario.node[20].nic.mac1609_4 	TooLittleTime 	0
scalar IntersectionExampleScenario.node[20].nic.mac1609_4 	TimesIntoBackoff 	0
scalar IntersectionExampleScenario.node[20].nic.mac1609_4 	SlotsBackoff 	0
scalar IntersectionExampleScenario.node[20].nic.mac1609_4 	NumInternalContention 	0
scalar IntersectionExampleScenario.node[20].nic.mac1609_4 	totalBusyTime 	0
scalar IntersectionExampleScenario.node[20].veinsmobility 	startTime 	56.5
scalar IntersectionExampleScenario.node[20].veinsmobility 	totalTime 	38.5
scalar IntersectionExampleScenario.node[20].veinsmobility 	stopTime 	95.25
scalar IntersectionExampleScenario.node[20].veinsmobility 	minSpeed 	5.6500000953674
scalar IntersectionExampleScenario.node[20].veinsmobility 	maxSpeed 	15.64999961853
scalar IntersectionExampleScenario.node[20].veinsmobility 	totalDistance 	552.84376525879
scalar IntersectionExampleScenario.node[20].veinsmobility 	totalCO2Emission 	118.731308559
scalar IntersectionExampleScenario.node[21].appl 	VehicleRemoved 	0
scalar IntersectionExampleScenario.node[21].appl 	ArrivedAtDest 	1
scalar IntersectionExampleScenario.node[21].appl 	IntersectionEnterTime 	59
scalar IntersectionExampleScenario.node[21].appl 	IntersectionExitTime 	82.787882820412
scalar IntersectionExampleScenario.node[21].appl 	NumberOfCollisions 	0
scalar IntersectionExampleScenario.node[21].nic.phy80211p 	busyTime 	0
scalar IntersectionExampleScenario.node[21].nic.mac1609_4 	ReceivedUnicastPackets 	0
scalar IntersectionExampleScenario.node[21].nic.mac1609_4 	ReceivedBroadcasts 	0
scalar IntersectionExampleScenario.node[21].nic.mac1609_4 	SentPackets 	0
scalar IntersectionExampleScenario.node[21].nic.mac1609_4 	SNIRLostPackets 	0
scalar IntersectionExampleScenario.node[21].nic.mac1609_4 	RXTXLostPackets 	0
scalar IntersectionExampleScenario.node[21].nic.mac1609_4 	TotalLostPackets 	0
scalar IntersectionExampleScenario.node[21].nic.mac1609_4 	DroppedPacketsInMac 	0
scalar IntersectionExampleScenario.node[21].nic.mac1609_4 	TooLittleTime 	0
scalar IntersectionExampleScenario.node[21].nic.mac1609_4 	TimesIntoBackoff 	0
scalar IntersectionExampleScenario.node[21].nic.mac1609_4 	SlotsBackoff 	0
scalar IntersectionExampleScenario.node[21].nic.mac1609_4 	NumInternalContention 	0
scalar IntersectionExampleScenario.node[21].nic.mac1609_4 	totalBusyTime 	0
scalar IntersectionExampleScenario.node[21].veinsmobility 	startTime 	59
scalar IntersectionExampleScenario.node[21].veinsmobility 	totalTime 	39.75
scalar IntersectionExampleScenario.node[21].veinsmobility 	stopTime 	99
scalar IntersectionExampleScenario.node[21].veinsmobility 	minSpeed 	5.6500000953674
scalar IntersectionExampleScenario.node[21].veinsmobility 	maxSpeed 	15.64999961853
scalar IntersectionExampleScenario.node[21].veinsmobility 	totalDistance 	569.14956665039
scalar IntersectionExampleScenario.node[21].veinsmobility 	totalCO2Emission 	119.43700839157
scalar IntersectionExampleScenario.node[12].appl 	VehicleRemoved 	0
scalar IntersectionExampleScenario.node[12].appl 	ArrivedAtDest 	1
scalar IntersectionExampleScenario.node[12].appl 	IntersectionEnterTime 	39
scalar IntersectionExampleScenario.node[12].appl 	IntersectionExitTime 	86.537008587446
scalar IntersectionExampleScenario.node[12].appl 	NumberOfCollisions 	0
scalar IntersectionExampleScenario.node[12].nic.phy80211p 	busyTime 	0
scalar IntersectionExampleScenario.node[12].nic.mac1609_4 	ReceivedUnicastPackets 	0
scalar IntersectionExampleScenario.node[12].nic.mac1609_4 	ReceivedBroadcasts 	0
scalar IntersectionExampleScenario.node[12].nic.mac1609_4 	SentPackets 	0
scalar IntersectionExampleScenario.node[12].nic.mac1609_4 	SNIRLostPackets 	0
scalar IntersectionExampleScenario.node[12].nic.mac1609_4 	RXTXLostPackets 	0
scalar IntersectionExampleScenario.node[12].nic.mac1609_4 	TotalLostPackets 	0
scalar IntersectionExampleScenario.node[12].nic.mac1609_4 	DroppedPacketsInMac 	0
scalar IntersectionExampleScenario.node[12].nic.mac1609_4 	TooLittleTime 	0
scalar IntersectionExampleScenario.node[12].nic.mac1609_4 	TimesIntoBackoff 	0
scalar IntersectionExampleScenario.node[12].nic.mac1609_4 	SlotsBackoff 	0
scalar IntersectionExampleScenario.node[12].nic.mac1609_4 	NumInternalContention 	0
scalar IntersectionExampleScenario.node[12].nic.mac1609_4 	totalBusyTime 	0
scalar IntersectionExampleScenario.node[12].veinsmobility 	startTime 	39
scalar IntersectionExampleScenario.node[12].veinsmobility 	totalTime 	64.25
scalar IntersectionExampleScenario.node[12].veinsmobility 	stopTime 	103.5
scalar IntersectionExampleScenario.node[12].veinsmobility 	minSpeed 	0
scalar IntersectionExampleScenario.node[12].veinsmobility 	maxSpeed 	15.298442840576
scalar IntersectionExampleScenario.node[12].veinsmobility 	totalDistance 	560.22753812224
scalar IntersectionExampleScenario.node[12].veinsmobility 	totalCO2Emission 	156.45132857688
scalar IntersectionExampleScenario.node[18].appl 	VehicleRemoved 	0
scalar IntersectionExampleScenario.node[18].appl 	ArrivedAtDest 	1
scalar IntersectionExampleScenario.node[18].appl 	IntersectionEnterTime 	48.25
scalar IntersectionExampleScenario.node[18].appl 	IntersectionExitTime 	88.822877131897
scalar IntersectionExampleScenario.node[18].appl 	NumberOfCollisions 	0
scalar IntersectionExampleScenario.node[18].nic.phy80211p 	busyTime 	0
scalar IntersectionExampleScenario.node[18].nic.mac1609_4 	ReceivedUnicastPackets 	0
scalar IntersectionExampleScenario.node[18].nic.mac1609_4 	ReceivedBroadcasts 	0
scalar IntersectionExampleScenario.node[18].nic.mac1609_4 	SentPackets 	0
scalar IntersectionExampleScenario.node[18].nic.mac1609_4 	SNIRLostPackets 	0
scalar IntersectionExampleScenario.node[18].nic.mac1609_4 	RXTXLostPackets 	0
scalar IntersectionExampleScenario.node[18].nic.mac1609_4 	TotalLostPackets 	0
scalar IntersectionExampleScenario.node[18].nic.mac1609_4 	DroppedPacketsInMac 	0
scalar IntersectionExampleScenario.node[18].nic.mac1609_4 	TooLittleTime 	0
scalar IntersectionExampleScenario.node[18].nic.mac1609_4 	TimesIntoBackoff 	0
scalar IntersectionExampleScenario.node[18].nic.mac1609_4 	SlotsBackoff 	0
scalar IntersectionExampleScenario.node[18].nic.mac1609_4 	NumInternalContention 	0
scalar IntersectionExampleScenario.node[18].nic.mac1609_4 	totalBusyTime 	0
scalar IntersectionExampleScenario.node[18].veinsmobility 	startTime 	48.25
scalar IntersectionExampleScenario.node[18].veinsmobility 	totalTime 	56.75
scalar IntersectionExampleScenario.node[18].veinsmobility 	stopTime 	105.25
scalar IntersectionExampleScenario.node[18].veinsmobility 	minSpeed 	0
scalar IntersectionExampleScenario.node[18].veinsmobility 	maxSpeed 	15.800719261169
scalar IntersectionExampleScenario.node[18].veinsmobility 	totalDistance 	515.91410050523
scalar IntersectionExampleScenario.node[18].veinsmobility 	totalCO2Emission 	147.37915178965
scalar IntersectionExampleScenario.node[16].appl 	VehicleRemoved 	0
scalar IntersectionExampleScenario.node[16].appl 	ArrivedAtDest 	1
scalar IntersectionExampleScenario.node[16].appl 	IntersectionEnterTime 	47.25
scalar IntersectionExampleScenario.node[16].appl 	IntersectionExitTime 	90.759974085639
scalar IntersectionExampleScenario.node[16].appl 	NumberOfCollisions 	0
scalar IntersectionExampleScenario.node[16].nic.phy80211p 	busyTime 	0
scalar IntersectionExampleScenario.node[16].nic.mac1609_4 	ReceivedUnicastPackets 	0
scalar IntersectionExampleScenario.node[16].nic.mac1609_4 	ReceivedBroadcasts 	0
scalar IntersectionExampleScenario.node[16].nic.mac1609_4 	SentPackets 	0
scalar IntersectionExampleScenario.node[16].nic.mac1609_4 	SNIRLostPackets 	0
scalar IntersectionExampleScenario.node[16].nic.mac1609_4 	RXTXLostPackets 	0
scalar IntersectionExampleScenario.node[16].nic.mac1609_4 	TotalLostPackets 	0
scalar IntersectionExampleScenario.node[16].nic.mac1609_4 	DroppedPacketsInMac 	0
scalar IntersectionExampleScenario.node[16].nic.mac1609_4 	TooLittleTime 	0
scalar IntersectionExampleScenario.node[16].nic.mac1609_4 	TimesIntoBackoff 	0
scalar IntersectionExampleScenario.node[16].nic.mac1609_4 	SlotsBackoff 	0
scalar IntersectionExampleScenario.node[16].nic.mac1609_4 	NumInternalContention 	0
scalar IntersectionExampleScenario.node[16].nic.mac1609_4 	totalBusyTime 	0
scalar IntersectionExampleScenario.node[16].veinsmobility 	startTime 	47.25
scalar IntersectionExampleScenario.node[16].veinsmobility 	totalTime 	59.25
scalar IntersectionExampleScenario.node[16].veinsmobility 	stopTime 	106.75
scalar IntersectionExampleScenario.node[16].veinsmobility 	minSpeed 	0
scalar IntersectionExampleScenario.node[16].veinsmobility 	maxSpeed 	15.5
scalar IntersectionExampleScenario.node[16].veinsmobility 	totalDistance 	551.09079742432
scalar IntersectionExampleScenario.node[16].veinsmobility 	totalCO2Emission 	154.81065099695
scalar IntersectionExampleScenario.node[17].appl 	VehicleRemoved 	0
scalar IntersectionExampleScenario.node[17].appl 	ArrivedAtDest 	1
scalar IntersectionExampleScenario.node[17].appl 	IntersectionEnterTime 	47.75
scalar IntersectionExampleScenario.node[17].appl 	IntersectionExitTime 	93.275380827108
scalar IntersectionExampleScenario.node[17].appl 	NumberOfCollisions 	0
scalar IntersectionExampleScenario.node[17].nic.phy80211p 	busyTime 	0
scalar IntersectionExampleScenario.node[17].nic.mac1609_4 	ReceivedUnicastPackets 	0
scalar IntersectionExampleScenario.node[17].nic.mac1609_4 	ReceivedBroadcasts 	0
scalar IntersectionExampleScenario.node[17].nic.mac1609_4 	SentPackets 	0
scalar IntersectionExampleScenario.node[17].nic.mac1609_4 	SNIRLostPackets 	0
scalar IntersectionExampleScenario.node[17].nic.mac1609_4 	RXTXLostPackets 	0
scalar IntersectionExampleScenario.node[17].nic.mac1609_4 	TotalLostPackets 	0
scalar IntersectionExampleScenario.node[17].nic.mac1609_4 	DroppedPacketsInMac 	0
scalar IntersectionExampleScenario.node[17].nic.mac1609_4 	TooLittleTime 	0
scalar IntersectionExampleScenario.node[17].nic.mac1609_4 	TimesIntoBackoff 	0
scalar IntersectionExampleScenario.node[17].nic.mac1609_4 	SlotsBackoff 	0
scalar IntersectionExampleScenario.node[17].nic.mac1609_4 	NumInternalContention 	0
scalar IntersectionExampleScenario.node[17].nic.mac1609_4 	totalBusyTime 	0
scalar IntersectionExampleScenario.node[17].veinsmobility 	startTime 	47.75
scalar IntersectionExampleScenario.node[17].veinsmobility 	totalTime 	61.5
scalar IntersectionExampleScenario.node[17].veinsmobility 	stopTime 	109.5
scalar IntersectionExampleScenario.node[17].veinsmobility 	minSpeed 	0
scalar IntersectionExampleScenario.node[17].veinsmobility 	maxSpeed 	16
scalar IntersectionExampleScenario.node[17].veinsmobility 	totalDistance 	574.71127957864
scalar IntersectionExampleScenario.node[17].veinsmobility 	totalCO2Emission 	158.08484548798
scalar IntersectionExampleScenario.node[19].appl 	VehicleRemoved 	0
scalar IntersectionExampleScenario.node[19].appl 	ArrivedAtDest 	1
scalar IntersectionExampleScenario.node[19].appl 	IntersectionEnterTime 	55.75
scalar IntersectionExampleScenario.node[19].appl 	IntersectionExitTime 	98.293869778106
scalar IntersectionExampleScenario.node[19].appl 	NumberOfCollisions 	0
scalar IntersectionExampleScenario.node[19].nic.phy80211p 	busyTime 	0
scalar IntersectionExampleScenario.node[19].nic.mac1609_4 	ReceivedUnicastPackets 	0
scalar IntersectionExampleScenario.node[19].nic.mac1609_4 	ReceivedBroadcasts 	0
scalar IntersectionExampleScenario.node[19].nic.mac1609_4 	SentPackets 	0
scalar IntersectionExampleScenario.node[19].nic.mac1609_4 	SNIRLostPackets 	0
scalar IntersectionExampleScenario.node[19].nic.mac1609_4 	RXTXLostPackets 	0
scalar IntersectionExampleScenario.node[19].nic.mac1609_4 	TotalLostPackets 	0
scalar IntersectionExampleScenario.node[19].nic.mac1609_4 	DroppedPacketsInMac 	0
scalar IntersectionExampleScenario.node[19].nic.mac1609_4 	TooLittleTime 	0
scalar IntersectionExampleScenario.node[19].nic.mac1609_4 	TimesIntoBackoff 	0
scalar IntersectionExampleScenario.node[19].nic.mac1609_4 	SlotsBackoff 	0
scalar IntersectionExampleScenario.node[19].nic.mac1609_4 	NumInternalContention 	0
scalar IntersectionExampleScenario.node[19].nic.mac1609_4 	totalBusyTime 	0
scalar IntersectionExampleScenario.node[19].veinsmobility 	startTime 	55.75
scalar IntersectionExampleScenario.node[19].veinsmobility 	totalTime 	59
scalar IntersectionExampleScenario.node[19].veinsmobility 	stopTime 	115
scalar IntersectionExampleScenario.node[19].veinsmobility 	minSpeed 	0
scalar IntersectionExampleScenario.node[19].veinsmobility 	maxSpeed 	15.02499961853
scalar IntersectionExampleScenario.node[19].veinsmobility 	totalDistance 	551.77279663086
scalar IntersectionExampleScenario.node[19].veinsmobility 	totalCO2Emission 	146.75489085034
scalar IntersectionExampleScenario.node[24].appl 	VehicleRemoved 	0
scalar IntersectionExampleScenario.node[24].appl 	ArrivedAtDest 	1
scalar IntersectionExampleScenario.node[24].appl 	IntersectionEnterTime 	71.5
scalar IntersectionExampleScenario.node[24].appl 	IntersectionExitTime 	100.28978410052
scalar IntersectionExampleScenario.node[24].appl 	NumberOfCollisions 	0
scalar IntersectionExampleScenario.node[24].nic.phy80211p 	busyTime 	0
scalar IntersectionExampleScenario.node[24].nic.mac1609_4 	ReceivedUnicastPackets 	0
scalar IntersectionExampleScenario.node[24].nic.mac1609_4 	ReceivedBroadcasts 	0
scalar IntersectionExampleScenario.node[24].nic.mac1609_4 	SentPackets 	0
scalar IntersectionExampleScenario.node[24].nic.mac1609_4 	SNIRLostPackets 	0
scalar IntersectionExampleScenario.node[24].nic.mac1609_4 	RXTXLostPackets 	0
scalar IntersectionExampleScenario.node[24].nic.mac1609_4 	TotalLostPackets 	0
scalar IntersectionExampleScenario.node[24].nic.mac1609_4 	DroppedPacketsInMac 	0
scalar IntersectionExampleScenario.node[24].nic.mac1609_4 	TooLittleTime 	0
scalar IntersectionExampleScenario.node[24].nic.mac1609_4 	TimesIntoBackoff 	0
scalar IntersectionExampleScenario.node[24].nic.mac1609_4 	SlotsBackoff 	0
scalar IntersectionExampleScenario.node[24].nic.mac1609_4 	NumInternalContention 	0
scalar IntersectionExampleScenario.node[24].nic.mac1609_4 	totalBusyTime 	0
scalar IntersectionExampleScenario.node[24].veinsmobility 	startTime 	71.5
scalar IntersectionExampleScenario.node[24].veinsmobility 	totalTime 	46
scalar IntersectionExampleScenario.node[24].veinsmobility 	stopTime 	117.75
scalar IntersectionExampleScenario.node[24].veinsmobility 	minSpeed 	4.3143582344055
scalar IntersectionExampleScenario.node[24].veinsmobility 	maxSpeed 	14.75
scalar IntersectionExampleScenario.node[24].veinsmobility 	totalDistance 	550.10070135718
scalar IntersectionExampleScenario.node[24].veinsmobility 	totalCO2Emission 	128.1338202152
scalar IntersectionExampleScenario.node[23].appl 	VehicleRemoved 	0
scalar IntersectionExampleScenario.node[23].appl 	ArrivedAtDest 	1
scalar IntersectionExampleScenario.node[23].appl 	IntersectionEnterTime 	65
scalar IntersectionExampleScenario.node[23].appl 	IntersectionExitTime 	109.29246348041
scalar IntersectionExampleScenario.node[23].appl 	NumberOfCollisions 	0
scalar IntersectionExampleScenario.node[23].nic.phy80211p 	busyTime 	0
scalar IntersectionExampleScenario.node[23].nic.mac1609_4 	ReceivedUnicastPackets 	0
scalar IntersectionExampleScenario.node[23].nic.mac1609_4 	ReceivedBroadcasts 	0
scalar IntersectionExampleScenario.node[23].nic.mac1609_4 	SentPackets 	0
scalar IntersectionExampleScenario.node[23].nic.mac1609_4 	SNIRLostPackets 	0
scalar IntersectionExampleScenario.node[23].nic.mac1609_4 	RXTXLostPackets 	0
scalar IntersectionExampleScenario.node[23].nic.mac1609_4 	TotalLostPackets 	0
scalar IntersectionExampleScenario.node[23].nic.mac1609_4 	DroppedPacketsInMac 	0
scalar IntersectionExampleScenario.node[23].nic.mac1609_4 	TooLittleTime 	0
scalar IntersectionExampleScenario.node[23].nic.mac1609_4 	TimesIntoBackoff 	0
scalar IntersectionExampleScenario.node[23].nic.mac1609_4 	SlotsBackoff 	0
scalar IntersectionExampleScenario.node[23].nic.mac1609_4 	NumInternalContention 	0
scalar IntersectionExampleScenario.node[23].nic.mac1609_4 	totalBusyTime 	0
scalar IntersectionExampleScenario.node[23].veinsmobility 	startTime 	65
scalar IntersectionExampleScenario.node[23].veinsmobility 	totalTime 	59.75
scalar IntersectionExampleScenario.node[23].veinsmobility 	stopTime 	125
scalar IntersectionExampleScenario.node[23].veinsmobility 	minSpeed 	0
scalar IntersectionExampleScenario.node[23].veinsmobility 	maxSpeed 	16
scalar IntersectionExampleScenario.node[23].veinsmobility 	totalDistance 	554.66452026367
scalar IntersectionExampleScenario.node[23].veinsmobility 	totalCO2Emission 	159.21314324498
scalar IntersectionExampleScenario.node[22].appl 	VehicleRemoved 	0
scalar IntersectionExampleScenario.node[22].appl 	ArrivedAtDest 	1
scalar IntersectionExampleScenario.node[22].appl 	IntersectionEnterTime 	64.25
scalar IntersectionExampleScenario.node[22].appl 	IntersectionExitTime 	109.30939153075
scalar IntersectionExampleScenario.node[22].appl 	NumberOfCollisions 	0
scalar IntersectionExampleScenario.node[22].nic.phy80211p 	busyTime 	0
scalar IntersectionExampleScenario.node[22].nic.mac1609_4 	ReceivedUnicastPackets 	0
scalar IntersectionExampleScenario.node[22].nic.mac1609_4 	ReceivedBroadcasts 	0
scalar IntersectionExampleScenario.node[22].nic.mac1609_4 	SentPackets 	0
scalar IntersectionExampleScenario.node[22].nic.mac1609_4 	SNIRLostPackets 	0
scalar IntersectionExampleScenario.node[22].nic.mac1609_4 	RXTXLostPackets 	0
scalar IntersectionExampleScenario.node[22].nic.mac1609_4 	TotalLostPackets 	0
scalar IntersectionExampleScenario.node[22].nic.mac1609_4 	DroppedPacketsInMac 	0
scalar IntersectionExampleScenario.node[22].nic.mac1609_4 	TooLittleTime 	0
scalar IntersectionExampleScenario.node[22].nic.mac1609_4 	TimesIntoBackoff 	0
scalar IntersectionExampleScenario.node[22].nic.mac1609_4 	SlotsBackoff 	0
scalar IntersectionExampleScenario.node[22].nic.mac1609_4 	NumInternalContention 	0
scalar IntersectionExampleScenario.node[22].nic.mac1609_4 	totalBusyTime 	0
scalar IntersectionExampleScenario.node[22].veinsmobility 	startTime 	64.25
scalar IntersectionExampleScenario.node[22].veinsmobility 	totalTime 	61.25
scalar IntersectionExampleScenario.node[22].veinsmobility 	stopTime 	125.75
scalar IntersectionExampleScenario.node[22].veinsmobility 	minSpeed 	0
scalar IntersectionExampleScenario.node[22].veinsmobility 	maxSpeed 	15.375
scalar IntersectionExampleScenario.node[22].veinsmobility 	totalDistance 	549.30346788516
scalar IntersectionExampleScenario.node[22].veinsmobility 	totalCO2Emission 	151.84018532591
scalar IntersectionExampleScenario.node[26].appl 	VehicleRemoved 	0
scalar IntersectionExampleScenario.node[26].appl 	ArrivedAtDest 	1
scalar IntersectionExampleScenario.node[26].appl 	IntersectionEnterTime 	77.25
scalar IntersectionExampleScenario.node[26].appl 	IntersectionExitTime 	111.57325274707
scalar IntersectionExampleScenario.node[26].appl 	NumberOfCollisions 	0
scalar IntersectionExampleScenario.node[26].nic.phy80211p 	busyTime 	0
scalar IntersectionExampleScenario.node[26].nic.mac1609_4 	ReceivedUnicastPackets 	0
scalar IntersectionExampleScenario.node[26].nic.mac1609_4 	ReceivedBroadcasts 	0
scalar IntersectionExampleScenario.node[26].nic.mac1609_4 	SentPackets 	0
scalar IntersectionExampleScenario.node[26].nic.mac1609_4 	SNIRLostPackets 	0
scalar IntersectionExampleScenario.node[26].nic.mac1609_4 	RXTXLostPackets 	0
scalar IntersectionExampleScenario.node[26].nic.mac1609_4 	TotalLostPackets 	0
scalar IntersectionExampleScenario.node[26].nic.mac1609_4 	DroppedPacketsInMac 	0
scalar IntersectionExampleScenario.node[26].nic.mac1609_4 	TooLittleTime 	0
scalar IntersectionExampleScenario.node[26].nic.mac1609_4 	TimesIntoBackoff 	0
scalar IntersectionExampleScenario.node[26].nic.mac1609_4 	SlotsBackoff 	0
scalar IntersectionExampleScenario.node[26].nic.mac1609_4 	NumInternalContention 	0
scalar IntersectionExampleScenario.node[26].nic.mac1609_4 	totalBusyTime 	0
scalar IntersectionExampleScenario.node[26].veinsmobility 	startTime 	77.25
scalar IntersectionExampleScenario.node[26].veinsmobility 	totalTime 	51
scalar IntersectionExampleScenario.node[26].veinsmobility 	stopTime 	128.5
scalar IntersectionExampleScenario.node[26].veinsmobility 	minSpeed 	1.2310017347336
scalar IntersectionExampleScenario.node[26].veinsmobility 	maxSpeed 	15.02499961853
scalar IntersectionExampleScenario.node[26].veinsmobility 	totalDistance 	554.86680603027
scalar IntersectionExampleScenario.node[26].veinsmobility 	totalCO2Emission 	135.20273466366
scalar IntersectionExampleScenario.node[29].appl 	VehicleRemoved 	0
scalar IntersectionExampleScenario.node[29].appl 	ArrivedAtDest 	1
scalar IntersectionExampleScenario.node[29].appl 	IntersectionEnterTime 	93.75
scalar IntersectionExampleScenario.node[29].appl 	IntersectionExitTime 	117.61072838743
scalar IntersectionExampleScenario.node[29].appl 	NumberOfCollisions 	0
scalar IntersectionExampleScenario.node[29].nic.phy80211p 	busyTime 	0
scalar IntersectionExampleScenario.node[29].nic.mac1609_4 	ReceivedUnicastPackets 	0
scalar IntersectionExampleScenario.node[29].nic.mac1609_4 	ReceivedBroadcasts 	0
scalar IntersectionExampleScenario.node[29].nic.mac1609_4 	SentPackets 	0
scalar IntersectionExampleScenario.node[29].nic.mac1609_4 	SNIRLostPackets 	0
scalar IntersectionExampleScenario.node[29].nic.mac1609_4 	RXTXLostPackets 	0
scalar IntersectionExampleScenario.node[29].nic.mac1609_4 	TotalLostPackets 	0
scalar IntersectionExampleScenario.node[29].nic.mac1609_4 	DroppedPacketsInMac 	0
scalar IntersectionExampleScenario.node[29].nic.mac1609_4 	TooLittleTime 	0
scalar IntersectionExampleScenario.node[29].nic.mac1609_4 	TimesIntoBackoff 	0
scalar IntersectionExampleScenario.node[29].nic.mac1609_4 	SlotsBackoff 	0
scalar IntersectionExampleScenario.node[29].nic.mac1609_4 	NumInternalContention 	0
scalar IntersectionExampleScenario.node[29].nic.mac1609_4 	totalBusyTime 	0
scalar IntersectionExampleScenario.node[29].veinsmobility 	startTime 	93.75
scalar IntersectionExampleScenario.node[29].veinsmobility 	totalTime 	40.75
scalar IntersectionExampleScenario.node[29].veinsmobility 	stopTime 	134.75
scalar IntersectionExampleScenario.node[29].veinsmobility 	minSpeed 	5.6500000953674
scalar IntersectionExampleScenario.node[29].veinsmobility 	maxSpeed 	15.02499961853
scalar IntersectionExampleScenario.node[29].veinsmobility 	totalDistance 	550.91109939169
scalar IntersectionExampleScenario.node[29].veinsmobility 	totalCO2Emission 	119.02187878506
scalar IntersectionExampleScenario.node[30].appl 	VehicleRemoved 	0
scalar IntersectionExampleScenario.node[30].appl 	ArrivedAtDest 	1
scalar IntersectionExampleScenario.node[30].appl 	IntersectionEnterTime 	97.25
scalar IntersectionExampleScenario.node[30].appl 	IntersectionExitTime 	119.53693026764
scalar IntersectionExampleScenario.node[30].appl 	NumberOfCollisions 	0
scalar IntersectionExampleScenario.node[30].nic.phy80211p 	busyTime 	0
scalar IntersectionExampleScenario.node[30].nic.mac1609_4 	ReceivedUnicastPackets 	0
scalar IntersectionExampleScenario.node[30].nic.mac1609_4 	ReceivedBroadcasts 	0
scalar IntersectionExampleScenario.node[30].nic.mac1609_4 	SentPackets 	0
scalar IntersectionExampleScenario.node[30].nic.mac1609_4 	SNIRLostPackets 	0
scalar IntersectionExampleScenario.node[30].nic.mac1609_4 	RXTXLostPackets 	0
scalar IntersectionExampleScenario.node[30].nic.mac1609_4 	TotalLostPackets 	0
scalar IntersectionExampleScenario.node[30].nic.mac1609_4 	DroppedPacketsInMac 	0
scalar IntersectionExampleScenario.node[30].nic.mac1609_4 	TooLittleTime 	0
scalar IntersectionExampleScenario.node[30].nic.mac1609_4 	TimesIntoBackoff 	0
scalar IntersectionExampleScenario.node[30].nic.mac1609_4 	SlotsBackoff 	0
scalar IntersectionExampleScenario.node[30].nic.mac1609_4 	NumInternalContention 	0
scalar IntersectionExampleScenario.node[30].nic.mac1609_4 	totalBusyTime 	0
scalar IntersectionExampleScenario.node[30].veinsmobility 	startTime 	97.25
scalar IntersectionExampleScenario.node[30].veinsmobility 	totalTime 	38.25
scalar IntersectionExampleScenario.node[30].veinsmobility 	stopTime 	135.75
scalar IntersectionExampleScenario.node[30].veinsmobility 	minSpeed 	5.6500000953674
scalar IntersectionExampleScenario.node[30].veinsmobility 	maxSpeed 	17.046909332275
scalar IntersectionExampleScenario.node[30].veinsmobility 	totalDistance 	542.68324573523
scalar IntersectionExampleScenario.node[30].veinsmobility 	totalCO2Emission 	137.12024293104
scalar IntersectionExampleScenario.node[25].appl 	VehicleRemoved 	0
scalar IntersectionExampleScenario.node[25].appl 	ArrivedAtDest 	1
scalar IntersectionExampleScenario.node[25].appl 	IntersectionEnterTime 	74
scalar IntersectionExampleScenario.node[25].appl 	IntersectionExitTime 	121.50851215911
scalar IntersectionExampleScenario.node[25].appl 	NumberOfCollisions 	0
scalar IntersectionExampleScenario.node[25].nic.phy80211p 	busyTime 	0
scalar IntersectionExampleScenario.node[25].nic.mac1609_4 	ReceivedUnicastPackets 	0
scalar IntersectionExampleScenario.node[25].nic.mac1609_4 	ReceivedBroadcasts 	0
scalar IntersectionExampleScenario.node[25].nic.mac1609_4 	SentPackets 	0
scalar IntersectionExampleScenario.node[25].nic.mac1609_4 	SNIRLostPackets 	0
scalar IntersectionExampleScenario.node[25].nic.mac1609_4 	RXTXLostPackets 	0
scalar IntersectionExampleScenario.node[25].nic.mac1609_4 	TotalLostPackets 	0
scalar IntersectionExampleScenario.node[25].nic.mac1609_4 	DroppedPacketsInMac 	0
scalar IntersectionExampleScenario.node[25].nic.mac1609_4 	TooLittleTime 	0
scalar IntersectionExampleScenario.node[25].nic.mac1609_4 	TimesIntoBackoff 	0
scalar IntersectionExampleScenario.node[25].nic.mac1609_4 	SlotsBackoff 	0
scalar IntersectionExampleScenario.node[25].nic.mac1609_4 	NumInternalContention 	0
scalar IntersectionExampleScenario.node[25].nic.mac1609_4 	totalBusyTime 	0
scalar IntersectionExampleScenario.node[25].veinsmobility 	startTime 	74
scalar IntersectionExampleScenario.node[25].veinsmobility 	totalTime 	64.25
scalar IntersectionExampleScenario.node[25].veinsmobility 	stopTime 	138.5
scalar IntersectionExampleScenario.node[25].veinsmobility 	minSpeed 	0
scalar IntersectionExampleScenario.node[25].veinsmobility 	maxSpeed 	15.64999961853
scalar IntersectionExampleScenario.node[25].veinsmobility 	totalDistance 	544.42738248259
scalar IntersectionExampleScenario.node[25].veinsmobility 	totalCO2Emission 	158.02475598802
scalar IntersectionExampleScenario.node[27].appl 	VehicleRemoved 	0
scalar IntersectionExampleScenario.node[27].appl 	ArrivedAtDest 	1
scalar IntersectionExampleScenario.node[27].appl 	IntersectionEnterTime 	81.75
scalar IntersectionExampleScenario.node[27].appl 	IntersectionExitTime 	123.287466234
scalar IntersectionExampleScenario.node[27].appl 	NumberOfCollisions 	0
scalar IntersectionExampleScenario.node[27].nic.phy80211p 	busyTime 	0
scalar IntersectionExampleScenario.node[27].nic.mac1609_4 	ReceivedUnicastPackets 	0
scalar IntersectionExampleScenario.node[27].nic.mac1609_4 	ReceivedBroadcasts 	0
scalar IntersectionExampleScenario.node[27].nic.mac1609_4 	SentPackets 	0
scalar IntersectionExampleScenario.node[27].nic.mac1609_4 	SNIRLostPackets 	0
scalar IntersectionExampleScenario.node[27].nic.mac1609_4 	RXTXLostPackets 	0
scalar IntersectionExampleScenario.node[27].nic.mac1609_4 	TotalLostPackets 	0
scalar IntersectionExampleScenario.node[27].nic.mac1609_4 	DroppedPacketsInMac 	0
scalar IntersectionExampleScenario.node[27].nic.mac1609_4 	TooLittleTime 	0
scalar IntersectionExampleScenario.node[27].nic.mac1609_4 	TimesIntoBackoff 	0
scalar IntersectionExampleScenario.node[27].nic.mac1609_4 	SlotsBackoff 	0
scalar IntersectionExampleScenario.node[27].nic.mac1609_4 	NumInternalContention 	0
scalar IntersectionExampleScenario.node[27].nic.mac1609_4 	totalBusyTime 	0
scalar IntersectionExampleScenario.node[27].veinsmobility 	startTime 	81.75
scalar IntersectionExampleScenario.node[27].veinsmobility 	totalTime 	57.5
scalar IntersectionExampleScenario.node[27].veinsmobility 	stopTime 	139.5
scalar IntersectionExampleScenario.node[27].veinsmobility 	minSpeed 	0
scalar IntersectionExampleScenario.node[27].veinsmobility 	maxSpeed 	15.64999961853
scalar IntersectionExampleScenario.node[27].veinsmobility 	totalDistance 	552.88120269775
scalar IntersectionExampleScenario.node[27].veinsmobility 	totalCO2Emission 	147.30236397943
scalar IntersectionExampleScenario.node[32].appl 	VehicleRemoved 	0
scalar IntersectionExampleScenario.node[32].appl 	ArrivedAtDest 	1
scalar IntersectionExampleScenario.node[32].appl 	IntersectionEnterTime 	101.5
scalar IntersectionExampleScenario.node[32].appl 	IntersectionExitTime 	126.56473050857
scalar IntersectionExampleScenario.node[32].appl 	NumberOfCollisions 	0
scalar IntersectionExampleScenario.node[32].nic.phy80211p 	busyTime 	0
scalar IntersectionExampleScenario.node[32].nic.mac1609_4 	ReceivedUnicastPackets 	0
scalar IntersectionExampleScenario.node[32].nic.mac1609_4 	ReceivedBroadcasts 	0
scalar IntersectionExampleScenario.node[32].nic.mac1609_4 	SentPackets 	0
scalar IntersectionExampleScenario.node[32].nic.mac1609_4 	SNIRLostPackets 	0
scalar IntersectionExampleScenario.node[32].nic.mac1609_4 	RXTXLostPackets 	0
scalar IntersectionExampleScenario.node[32].nic.mac1609_4 	TotalLostPackets 	0
scalar IntersectionExampleScenario.node[32].nic.mac1609_4 	DroppedPacketsInMac 	0
scalar IntersectionExampleScenario.node[32].nic.mac1609_4 	TooLittleTime 	0
scalar IntersectionExampleScenario.node[32].nic.mac1609_4 	TimesIntoBackoff 	0
scalar IntersectionExampleScenario.node[32].nic.mac1609_4 	SlotsBackoff 	0
scalar IntersectionExampleScenario.node[32].nic.mac1609_4 	NumInternalContention 	0
scalar IntersectionExampleScenario.node[32].nic.mac1609_4 	totalBusyTime 	0
scalar IntersectionExampleScenario.node[32].veinsmobility 	startTime 	101.5
scalar IntersectionExampleScenario.node[32].veinsmobility 	totalTime 	42.25
scalar IntersectionExampleScenario.node[32].veinsmobility 	stopTime 	144
scalar IntersectionExampleScenario.node[32].veinsmobility 	minSpeed 	5.6500000953674
scalar IntersectionExampleScenario.node[32].veinsmobility 	maxSpeed 	14.75
scalar IntersectionExampleScenario.node[32].veinsmobility 	totalDistance 	552.30309522883
scalar IntersectionExampleScenario.node[32].veinsmobility 	totalCO2Emission 	127.83811007372
scalar IntersectionExampleScenario.node[28].appl 	VehicleRemoved 	0
scalar IntersectionExampleScenario.node[28].appl 	ArrivedAtDest 	1
scalar IntersectionExampleScenario.node[28].appl 	IntersectionEnterTime 	89.5
scalar IntersectionExampleScenario.node[28].appl 	IntersectionExitTime 	133.25630970925
scalar IntersectionExampleScenario.node[28].appl 	NumberOfCollisions 	0
scalar IntersectionExampleScenario.node[28].nic.phy80211p 	busyTime 	0
scalar IntersectionExampleScenario.node[28].nic.mac1609_4 	ReceivedUnicastPackets 	0
scalar IntersectionExampleScenario.node[28].nic.mac1609_4 	ReceivedBroadcasts 	0
scalar IntersectionExampleScenario.node[28].nic.mac1609_4 	SentPackets 	0
scalar IntersectionExampleScenario.node[28].nic.mac1609_4 	SNIRLostPackets 	0
scalar IntersectionExampleScenario.node[28].nic.mac1609_4 	RXTXLostPackets 	0
scalar IntersectionExampleScenario.node[28].nic.mac1609_4 	TotalLostPackets 	0
scalar IntersectionExampleScenario.node[28].nic.mac1609_4 	DroppedPacketsInMac 	0
scalar IntersectionExampleScenario.node[28].nic.mac1609_4 	TooLittleTime 	0
scalar IntersectionExampleScenario.node[28].nic.mac1609_4 	TimesIntoBackoff 	0
scalar IntersectionExampleScenario.node[28].nic.mac1609_4 	SlotsBackoff 	0
scalar IntersectionExampleScenario.node[28].nic.mac1609_4 	NumInternalContention 	0
scalar IntersectionExampleScenario.node[28].nic.mac1609_4 	totalBusyTime 	0
scalar IntersectionExampleScenario.node[28].veinsmobility 	startTime 	89.5
scalar IntersectionExampleScenario.node[28].veinsmobility 	totalTime 	60
scalar IntersectionExampleScenario.node[28].veinsmobility 	stopTime 	149.75
scalar IntersectionExampleScenario.node[28].veinsmobility 	minSpeed 	0
scalar IntersectionExampleScenario.node[28].veinsmobility 	maxSpeed 	15.375
scalar IntersectionExampleScenario.node[28].veinsmobility 	totalDistance 	553.37905883789
scalar IntersectionExampleScenario.node[28].veinsmobility 	totalCO2Emission 	150.42860560234
scalar IntersectionExampleScenario.node[31].appl 	VehicleRemoved 	0
scalar IntersectionExampleScenario.node[31].appl 	ArrivedAtDest 	1
scalar IntersectionExampleScenario.node[31].appl 	IntersectionEnterTime 	98.25
scalar IntersectionExampleScenario.node[31].appl 	IntersectionExitTime 	134.37027461088
scalar IntersectionExampleScenario.node[31].appl 	NumberOfCollisions 	0
scalar IntersectionExampleScenario.node[31].nic.phy80211p 	busyTime 	0
scalar IntersectionExampleScenario.node[31].nic.mac1609_4 	ReceivedUnicastPackets 	0
scalar IntersectionExampleScenario.node[31].nic.mac1609_4 	ReceivedBroadcasts 	0
scalar IntersectionExampleScenario.node[31].nic.mac1609_4 	SentPackets 	0
scalar IntersectionExampleScenario.node[31].nic.mac1609_4 	SNIRLostPackets 	0
scalar IntersectionExampleScenario.node[31].nic.mac1609_4 	RXTXLostPackets 	0
scalar IntersectionExampleScenario.node[31].nic.mac1609_4 	TotalLostPackets 	0
scalar IntersectionExampleScenario.node[31].nic.mac1609_4 	DroppedPacketsInMac 	0
scalar IntersectionExampleScenario.node[31].nic.mac1609_4 	TooLittleTime 	0
scalar IntersectionExampleScenario.node[31].nic.mac1609_4 	TimesIntoBackoff 	0
scalar IntersectionExampleScenario.node[31].nic.mac1609_4 	SlotsBackoff 	0
scalar IntersectionExampleScenario.node[31].nic.mac1609_4 	NumInternalContention 	0
scalar IntersectionExampleScenario.node[31].nic.mac1609_4 	totalBusyTime 	0
scalar IntersectionExampleScenario.node[31].veinsmobility 	startTime 	98.25
scalar IntersectionExampleScenario.node[31].veinsmobility 	totalTime 	52
scalar IntersectionExampleScenario.node[31].veinsmobility 	stopTime 	150.5
scalar IntersectionExampleScenario.node[31].veinsmobility 	minSpeed 	0
scalar IntersectionExampleScenario.node[31].veinsmobility 	maxSpeed 	16.27499961853
scalar IntersectionExampleScenario.node[31].veinsmobility 	totalDistance 	543.58173479798
scalar IntersectionExampleScenario.node[31].veinsmobility 	totalCO2Emission 	144.88706753537
scalar IntersectionExampleScenario.node[34].appl 	VehicleRemoved 	0
scalar IntersectionExampleScenario.node[34].appl 	ArrivedAtDest 	1
scalar IntersectionExampleScenario.node[34].appl 	IntersectionEnterTime 	102.75
scalar IntersectionExampleScenario.node[34].appl 	IntersectionExitTime 	136.76717165654
scalar IntersectionExampleScenario.node[34].appl 	NumberOfCollisions 	0
scalar IntersectionExampleScenario.node[34].nic.phy80211p 	busyTime 	0
scalar IntersectionExampleScenario.node[34].nic.mac1609_4 	ReceivedUnicastPackets 	0
scalar IntersectionExampleScenario.node[34].nic.mac1609_4 	ReceivedBroadcasts 	0
scalar IntersectionExampleScenario.node[34].nic.mac1609_4 	SentPackets 	0
scalar IntersectionExampleScenario.node[34].nic.mac1609_4 	SNIRLostPackets 	0
scalar IntersectionExampleScenario.node[34].nic.mac1609_4 	RXTXLostPackets 	0
scalar IntersectionExampleScenario.node[34].nic.mac1609_4 	TotalLostPackets 	0
scalar IntersectionExampleScenario.node[34].nic.mac1609_4 	DroppedPacketsInMac 	0
scalar IntersectionExampleScenario.node[34].nic.mac1609_4 	TooLittleTime 	0
scalar IntersectionExampleScenario.node[34].nic.mac1609_4 	TimesIntoBackoff 	0
scalar IntersectionExampleScenario.node[34].nic.mac1609_4 	SlotsBackoff 	0
scalar IntersectionExampleScenario.node[34].nic.mac1609_4 	NumInternalContention 	0
scalar IntersectionExampleScenario.node[34].nic.mac1609_4 	totalBusyTime 	0
scalar IntersectionExampleScenario.node[34].veinsmobility 	startTime 	102.75
scalar IntersectionExampleScenario.node[34].veinsmobility 	totalTime 	50.75
scalar IntersectionExampleScenario.node[34].veinsmobility 	stopTime 	153.75
scalar IntersectionExampleScenario.node[34].veinsmobility 	minSpeed 	2.2656390666962
scalar IntersectionExampleScenario.node[34].veinsmobility 	maxSpeed 	15.375
scalar IntersectionExampleScenario.node[34].veinsmobility 	totalDistance 	552.80105443422
scalar IntersectionExampleScenario.node[34].veinsmobility 	totalCO2Emission 	137.20969345486
scalar IntersectionExampleScenario.node[36].appl 	VehicleRemoved 	0
scalar IntersectionExampleScenario.node[36].appl 	ArrivedAtDest 	1
scalar IntersectionExampleScenario.node[36].appl 	IntersectionEnterTime 	106
scalar IntersectionExampleScenario.node[36].appl 	IntersectionExitTime 	138.52355445756
scalar IntersectionExampleScenario.node[36].appl 	NumberOfCollisions 	0
scalar IntersectionExampleScenario.node[36].nic.phy80211p 	busyTime 	0
scalar IntersectionExampleScenario.node[36].nic.mac1609_4 	ReceivedUnicastPackets 	0
scalar IntersectionExampleScenario.node[36].nic.mac1609_4 	ReceivedBroadcasts 	0
scalar IntersectionExampleScenario.node[36].nic.mac1609_4 	SentPackets 	0
scalar IntersectionExampleScenario.node[36].nic.mac1609_4 	SNIRLostPackets 	0
scalar IntersectionExampleScenario.node[36].nic.mac1609_4 	RXTXLostPackets 	0
scalar IntersectionExampleScenario.node[36].nic.mac1609_4 	TotalLostPackets 	0
scalar IntersectionExampleScenario.node[36].nic.mac1609_4 	DroppedPacketsInMac 	0
scalar IntersectionExampleScenario.node[36].nic.mac1609_4 	TooLittleTime 	0
scalar IntersectionExampleScenario.node[36].nic.mac1609_4 	TimesIntoBackoff 	0
scalar IntersectionExampleScenario.node[36].nic.mac1609_4 	SlotsBackoff 	0
scalar IntersectionExampleScenario.node[36].nic.mac1609_4 	NumInternalContention 	0
scalar IntersectionExampleScenario.node[36].nic.mac1609_4 	totalBusyTime 	0
scalar IntersectionExampleScenario.node[36].veinsmobility 	startTime 	106
scalar IntersectionExampleScenario.node[36].veinsmobility 	totalTime 	48
scalar IntersectionExampleScenario.node[36].veinsmobility 	stopTime 	154.25
scalar IntersectionExampleScenario.node[36].veinsmobility 	minSpeed 	0.96084642410278
scalar IntersectionExampleScenario.node[36].veinsmobility 	maxSpeed 	15.937397003174
scalar IntersectionExampleScenario.node[36].veinsmobility 	totalDistance 	564.84619140625
scalar IntersectionExampleScenario.node[36].veinsmobility 	totalCO2Emission 	143.04994533466
scalar IntersectionExampleScenario.node[33].appl 	VehicleRemoved 	0
scalar IntersectionExampleScenario.node[33].appl 	ArrivedAtDest 	1
scalar IntersectionExampleScenario.node[33].appl 	IntersectionEnterTime 	101.75
scalar IntersectionExampleScenario.node[33].appl 	IntersectionExitTime 	144.33098655316
scalar IntersectionExampleScenario.node[33].appl 	NumberOfCollisions 	0
scalar IntersectionExampleScenario.node[33].nic.phy80211p 	busyTime 	0
scalar IntersectionExampleScenario.node[33].nic.mac1609_4 	ReceivedUnicastPackets 	0
scalar IntersectionExampleScenario.node[33].nic.mac1609_4 	ReceivedBroadcasts 	0
scalar IntersectionExampleScenario.node[33].nic.mac1609_4 	SentPackets 	0
scalar IntersectionExampleScenario.node[33].nic.mac1609_4 	SNIRLostPackets 	0
scalar IntersectionExampleScenario.node[33].nic.mac1609_4 	RXTXLostPackets 	0
scalar IntersectionExampleScenario.node[33].nic.mac1609_4 	TotalLostPackets 	0
scalar IntersectionExampleScenario.node[33].nic.mac1609_4 	DroppedPacketsInMac 	0
scalar IntersectionExampleScenario.node[33].nic.mac1609_4 	TooLittleTime 	0
scalar IntersectionExampleScenario.node[33].nic.mac1609_4 	TimesIntoBackoff 	0
scalar IntersectionExampleScenario.node[33].nic.mac1609_4 	SlotsBackoff 	0
scalar IntersectionExampleScenario.node[33].nic.mac1609_4 	NumInternalContention 	0
scalar IntersectionExampleScenario.node[33].nic.mac1609_4 	totalBusyTime 	0
scalar IntersectionExampleScenario.node[33].veinsmobility 	startTime 	101.75
scalar IntersectionExampleScenario.node[33].veinsmobility 	totalTime 	58.5
scalar IntersectionExampleScenario.node[33].veinsmobility 	stopTime 	160.5
scalar IntersectionExampleScenario.node[33].veinsmobility 	minSpeed 	0
scalar IntersectionExampleScenario.node[33].veinsmobility 	maxSpeed 	15.64999961853
scalar IntersectionExampleScenario.node[33].veinsmobility 	totalDistance 	553.04893493652
scalar IntersectionExampleScenario.node[33].veinsmobility 	totalCO2Emission 	151.12097809001
scalar IntersectionExampleScenario.node[35].appl 	VehicleRemoved 	0
scalar IntersectionExampleScenario.node[35].appl 	ArrivedAtDest 	1
scalar IntersectionExampleScenario.node[35].appl 	IntersectionEnterTime 	103.5
scalar IntersectionExampleScenario.node[35].appl 	IntersectionExitTime 	146.2710441165
scalar IntersectionExampleScenario.node[35].appl 	NumberOfCollisions 	0
scalar IntersectionExampleScenario.node[35].nic.phy80211p 	busyTime 	0
scalar IntersectionExampleScenario.node[35].nic.mac1609_4 	ReceivedUnicastPackets 	0
scalar IntersectionExampleScenario.node[35].nic.mac1609_4 	ReceivedBroadcasts 	0
scalar IntersectionExampleScenario.node[35].nic.mac1609_4 	SentPackets 	0
scalar IntersectionExampleScenario.node[35].nic.mac1609_4 	SNIRLostPackets 	0
scalar IntersectionExampleScenario.node[35].nic.mac1609_4 	RXTXLostPackets 	0
scalar IntersectionExampleScenario.node[35].nic.mac1609_4 	TotalLostPackets 	0
scalar IntersectionExampleScenario.node[35].nic.mac1609_4 	DroppedPacketsInMac 	0
scalar IntersectionExampleScenario.node[35].nic.mac1609_4 	TooLittleTime 	0
scalar IntersectionExampleScenario.node[35].nic.mac1609_4 	TimesIntoBackoff 	0
scalar IntersectionExampleScenario.node[35].nic.mac1609_4 	SlotsBackoff 	0
scalar IntersectionExampleScenario.node[35].nic.mac1609_4 	NumInternalContention 	0
scalar IntersectionExampleScenario.node[35].nic.mac1609_4 	totalBusyTime 	0
scalar IntersectionExampleScenario.node[35].veinsmobility 	startTime 	103.5
scalar IntersectionExampleScenario.node[35].veinsmobility 	totalTime 	58.25
scalar IntersectionExampleScenario.node[35].veinsmobility 	stopTime 	162
scalar IntersectionExampleScenario.node[35].veinsmobility 	minSpeed 	0
scalar IntersectionExampleScenario.node[35].veinsmobility 	maxSpeed 	15.752736091614
scalar IntersectionExampleScenario.node[35].veinsmobility 	totalDistance 	572.11201477051
scalar IntersectionExampleScenario.node[35].veinsmobility 	totalCO2Emission 	156.59559622613
scalar IntersectionExampleScenario.node[37].appl 	VehicleRemoved 	0
scalar IntersectionExampleScenario.node[37].appl 	ArrivedAtDest 	1
scalar IntersectionExampleScenario.node[37].appl 	IntersectionEnterTime 	122.75
scalar IntersectionExampleScenario.node[37].appl 	IntersectionExitTime 	148.30172472593
scalar IntersectionExampleScenario.node[37].appl 	NumberOfCollisions 	0
scalar IntersectionExampleScenario.node[37].nic.phy80211p 	busyTime 	0
scalar IntersectionExampleScenario.node[37].nic.mac1609_4 	ReceivedUnicastPackets 	0
scalar IntersectionExampleScenario.node[37].nic.mac1609_4 	ReceivedBroadcasts 	0
scalar IntersectionExampleScenario.node[37].nic.mac1609_4 	SentPackets 	0
scalar IntersectionExampleScenario.node[37].nic.mac1609_4 	SNIRLostPackets 	0
scalar IntersectionExampleScenario.node[37].nic.mac1609_4 	RXTXLostPackets 	0
scalar IntersectionExampleScenario.node[37].nic.mac1609_4 	TotalLostPackets 	0
scalar IntersectionExampleScenario.node[37].nic.mac1609_4 	DroppedPacketsInMac 	0
scalar IntersectionExampleScenario.node[37].nic.mac1609_4 	TooLittleTime 	0
scalar IntersectionExampleScenario.node[37].nic.mac1609_4 	TimesIntoBackoff 	0
scalar IntersectionExampleScenario.node[37].nic.mac1609_4 	SlotsBackoff 	0
scalar IntersectionExampleScenario.node[37].nic.mac1609_4 	NumInternalContention 	0
scalar IntersectionExampleScenario.node[37].nic.mac1609_4 	totalBusyTime 	0
scalar IntersectionExampleScenario.node[37].veinsmobility 	startTime 	122.75
scalar IntersectionExampleScenario.node[37].veinsmobility 	totalTime 	40.5
scalar IntersectionExampleScenario.node[37].veinsmobility 	stopTime 	163.5
scalar IntersectionExampleScenario.node[37].veinsmobility 	minSpeed 	5.6500000953674
scalar IntersectionExampleScenario.node[37].veinsmobility 	maxSpeed 	16.89999961853
scalar IntersectionExampleScenario.node[37].veinsmobility 	totalDistance 	552.57470703125
scalar IntersectionExampleScenario.node[37].veinsmobility 	totalCO2Emission 	137.24408366186
scalar IntersectionExampleScenario.node[42].appl 	VehicleRemoved 	0
scalar IntersectionExampleScenario.node[42].appl 	ArrivedAtDest 	1
scalar IntersectionExampleScenario.node[42].appl 	IntersectionEnterTime 	128.75
scalar IntersectionExampleScenario.node[42].appl 	IntersectionExitTime 	152.32488147472
scalar IntersectionExampleScenario.node[42].appl 	NumberOfCollisions 	0
scalar IntersectionExampleScenario.node[42].nic.phy80211p 	busyTime 	0
scalar IntersectionExampleScenario.node[42].nic.mac1609_4 	ReceivedUnicastPackets 	0
scalar IntersectionExampleScenario.node[42].nic.mac1609_4 	ReceivedBroadcasts 	0
scalar IntersectionExampleScenario.node[42].nic.mac1609_4 	SentPackets 	0
scalar IntersectionExampleScenario.node[42].nic.mac1609_4 	SNIRLostPackets 	0
scalar IntersectionExampleScenario.node[42].nic.mac1609_4 	RXTXLostPackets 	0
scalar IntersectionExampleScenario.node[42].nic.mac1609_4 	TotalLostPackets 	0
scalar IntersectionExampleScenario.node[42].nic.mac1609_4 	DroppedPacketsInMac 	0
scalar IntersectionExampleScenario.node[42].nic.mac1609_4 	TooLittleTime 	0
scalar IntersectionExampleScenario.node[42].nic.mac1609_4 	TimesIntoBackoff 	0
scalar IntersectionExampleScenario.node[42].nic.mac1609_4 	SlotsBackoff 	0
scalar IntersectionExampleScenario.node[42].nic.mac1609_4 	NumInternalContention 	0
scalar IntersectionExampleScenario.node[42].nic.mac1609_4 	totalBusyTime 	0
scalar IntersectionExampleScenario.node[42].veinsmobility 	startTime 	128.75
scalar IntersectionExampleScenario.node[42].veinsmobility 	totalTime 	40
scalar IntersectionExampleScenario.node[42].veinsmobility 	stopTime 	169
scalar IntersectionExampleScenario.node[42].veinsmobility 	minSpeed 	5.6500000953674
scalar IntersectionExampleScenario.node[42].veinsmobility 	maxSpeed 	15.875
scalar IntersectionExampleScenario.node[42].veinsmobility 	totalDistance 	543.82091084308
scalar IntersectionExampleScenario.node[42].veinsmobility 	totalCO2Emission 	126.97611641012
scalar IntersectionExampleScenario.node[39].appl 	VehicleRemoved 	0
scalar IntersectionExampleScenario.node[39].appl 	ArrivedAtDest 	1
scalar IntersectionExampleScenario.node[39].appl 	IntersectionEnterTime 	124.25
scalar IntersectionExampleScenario.node[39].appl 	IntersectionExitTime 	157.35797127447
scalar IntersectionExampleScenario.node[39].appl 	NumberOfCollisions 	0
scalar IntersectionExampleScenario.node[39].nic.phy80211p 	busyTime 	0
scalar IntersectionExampleScenario.node[39].nic.mac1609_4 	ReceivedUnicastPackets 	0
scalar IntersectionExampleScenario.node[39].nic.mac1609_4 	ReceivedBroadcasts 	0
scalar IntersectionExampleScenario.node[39].nic.mac1609_4 	SentPackets 	0
scalar IntersectionExampleScenario.node[39].nic.mac1609_4 	SNIRLostPackets 	0
scalar IntersectionExampleScenario.node[39].nic.mac1609_4 	RXTXLostPackets 	0
scalar IntersectionExampleScenario.node[39].nic.mac1609_4 	TotalLostPackets 	0
scalar IntersectionExampleScenario.node[39].nic.mac1609_4 	DroppedPacketsInMac 	0
scalar IntersectionExampleScenario.node[39].nic.mac1609_4 	TooLittleTime 	0
scalar IntersectionExampleScenario.node[39].nic.mac1609_4 	TimesIntoBackoff 	0
scalar IntersectionExampleScenario.node[39].nic.mac1609_4 	SlotsBackoff 	0
[...]
scalar IntersectionExampleScenario.node[515].veinsmobility 	totalCO2Emission 	76.274527825071
scalar IntersectionExampleScenario.node[516].appl 	VehicleRemoved 	0
scalar IntersectionExampleScenario.node[516].appl 	ArrivedAtDest 	0
scalar IntersectionExampleScenario.node[516].appl 	IntersectionEnterTime 	1771.5
scalar IntersectionExampleScenario.node[516].appl 	IntersectionExitTime 	1795.5779204443
scalar IntersectionExampleScenario.node[516].appl 	NumberOfCollisions 	0
scalar IntersectionExampleScenario.node[516].nic.phy80211p 	busyTime 	0
scalar IntersectionExampleScenario.node[516].nic.mac1609_4 	ReceivedUnicastPackets 	0
scalar IntersectionExampleScenario.node[516].nic.mac1609_4 	ReceivedBroadcasts 	0
scalar IntersectionExampleScenario.node[516].nic.mac1609_4 	SentPackets 	0
scalar IntersectionExampleScenario.node[516].nic.mac1609_4 	SNIRLostPackets 	0
scalar IntersectionExampleScenario.node[516].nic.mac1609_4 	RXTXLostPackets 	0
scalar IntersectionExampleScenario.node[516].nic.mac1609_4 	TotalLostPackets 	0
scalar IntersectionExampleScenario.node[516].nic.mac1609_4 	DroppedPacketsInMac 	0
scalar IntersectionExampleScenario.node[516].nic.mac1609_4 	TooLittleTime 	0
scalar IntersectionExampleScenario.node[516].nic.mac1609_4 	TimesIntoBackoff 	0
scalar IntersectionExampleScenario.node[516].nic.mac1609_4 	SlotsBackoff 	0
scalar IntersectionExampleScenario.node[516].nic.mac1609_4 	NumInternalContention 	0
scalar IntersectionExampleScenario.node[516].nic.mac1609_4 	totalBusyTime 	0
scalar IntersectionExampleScenario.node[516].veinsmobility 	startTime 	1771.5
scalar IntersectionExampleScenario.node[516].veinsmobility 	totalTime 	28.5
scalar IntersectionExampleScenario.node[516].veinsmobility 	stopTime 	1800
scalar IntersectionExampleScenario.node[516].veinsmobility 	minSpeed 	5.6500000953674
scalar IntersectionExampleScenario.node[516].veinsmobility 	maxSpeed 	16
scalar IntersectionExampleScenario.node[516].veinsmobility 	totalDistance 	370.97474204286
scalar IntersectionExampleScenario.node[516].veinsmobility 	totalCO2Emission 	116.43305867637
scalar IntersectionExampleScenario.node[517].appl 	VehicleRemoved 	0
scalar IntersectionExampleScenario.node[517].appl 	ArrivedAtDest 	0
scalar IntersectionExampleScenario.node[517].appl 	IntersectionEnterTime 	1774.5
scalar IntersectionExampleScenario.node[517].appl 	IntersectionExitTime 	1799.0572685356
scalar IntersectionExampleScenario.node[517].appl 	NumberOfCollisions 	0
scalar IntersectionExampleScenario.node[517].nic.phy80211p 	busyTime 	0
scalar IntersectionExampleScenario.node[517].nic.mac1609_4 	ReceivedUnicastPackets 	0
scalar IntersectionExampleScenario.node[517].nic.mac1609_4 	ReceivedBroadcasts 	0
scalar IntersectionExampleScenario.node[517].nic.mac1609_4 	SentPackets 	0
scalar IntersectionExampleScenario.node[517].nic.mac1609_4 	SNIRLostPackets 	0
scalar IntersectionExampleScenario.node[517].nic.mac1609_4 	RXTXLostPackets 	0
scalar IntersectionExampleScenario.node[517].nic.mac1609_4 	TotalLostPackets 	0
scalar IntersectionExampleScenario.node[517].nic.mac1609_4 	DroppedPacketsInMac 	0
scalar IntersectionExampleScenario.node[517].nic.mac1609_4 	TooLittleTime 	0
scalar IntersectionExampleScenario.node[517].nic.mac1609_4 	TimesIntoBackoff 	0
scalar IntersectionExampleScenario.node[517].nic.mac1609_4 	SlotsBackoff 	0
scalar IntersectionExampleScenario.node[517].nic.mac1609_4 	NumInternalContention 	0
scalar IntersectionExampleScenario.node[517].nic.mac1609_4 	totalBusyTime 	0
scalar IntersectionExampleScenario.node[517].veinsmobility 	startTime 	1774.5
scalar IntersectionExampleScenario.node[517].veinsmobility 	totalTime 	25.5
scalar IntersectionExampleScenario.node[517].veinsmobility 	stopTime 	1800
scalar IntersectionExampleScenario.node[517].veinsmobility 	minSpeed 	5.6500000953674
scalar IntersectionExampleScenario.node[517].veinsmobility 	maxSpeed 	14.39999961853
scalar IntersectionExampleScenario.node[517].veinsmobility 	totalDistance 	320.00081438097
scalar IntersectionExampleScenario.node[517].veinsmobility 	totalCO2Emission 	72.676134999501
scalar IntersectionExampleScenario.node[518].appl 	VehicleRemoved 	0
scalar IntersectionExampleScenario.node[518].appl 	ArrivedAtDest 	0
scalar IntersectionExampleScenario.node[518].appl 	IntersectionEnterTime 	1777.5
scalar IntersectionExampleScenario.node[518].appl 	IntersectionExitTime 	-1
scalar IntersectionExampleScenario.node[518].appl 	NumberOfCollisions 	0
scalar IntersectionExampleScenario.node[518].nic.phy80211p 	busyTime 	0
scalar IntersectionExampleScenario.node[518].nic.mac1609_4 	ReceivedUnicastPackets 	0
scalar IntersectionExampleScenario.node[518].nic.mac1609_4 	ReceivedBroadcasts 	0
scalar IntersectionExampleScenario.node[518].nic.mac1609_4 	SentPackets 	0
scalar IntersectionExampleScenario.node[518].nic.mac1609_4 	SNIRLostPackets 	0
scalar IntersectionExampleScenario.node[518].nic.mac1609_4 	RXTXLostPackets 	0
scalar IntersectionExampleScenario.node[518].nic.mac1609_4 	TotalLostPackets 	0
scalar IntersectionExampleScenario.node[518].nic.mac1609_4 	DroppedPacketsInMac 	0
scalar IntersectionExampleScenario.node[518].nic.mac1609_4 	TooLittleTime 	0
scalar IntersectionExampleScenario.node[518].nic.mac1609_4 	TimesIntoBackoff 	0
scalar IntersectionExampleScenario.node[518].nic.mac1609_4 	SlotsBackoff 	0
scalar IntersectionExampleScenario.node[518].nic.mac1609_4 	NumInternalContention 	0
scalar IntersectionExampleScenario.node[518].nic.mac1609_4 	totalBusyTime 	0
scalar IntersectionExampleScenario.node[518].veinsmobility 	startTime 	1777.5
scalar IntersectionExampleScenario.node[518].veinsmobility 	totalTime 	22.5
scalar IntersectionExampleScenario.node[518].veinsmobility 	stopTime 	1800
scalar IntersectionExampleScenario.node[518].veinsmobility 	minSpeed 	0
scalar IntersectionExampleScenario.node[518].veinsmobility 	maxSpeed 	15.02499961853
scalar IntersectionExampleScenario.node[518].veinsmobility 	totalDistance 	287.42188262939
scalar IntersectionExampleScenario.node[518].veinsmobility 	totalCO2Emission 	66.020958889271
scalar IntersectionExampleScenario.node[519].appl 	VehicleRemoved 	0
scalar IntersectionExampleScenario.node[519].appl 	ArrivedAtDest 	0
scalar IntersectionExampleScenario.node[519].appl 	IntersectionEnterTime 	1778.25
scalar IntersectionExampleScenario.node[519].appl 	IntersectionExitTime 	-1
scalar IntersectionExampleScenario.node[519].appl 	NumberOfCollisions 	0
scalar IntersectionExampleScenario.node[519].nic.phy80211p 	busyTime 	0
scalar IntersectionExampleScenario.node[519].nic.mac1609_4 	ReceivedUnicastPackets 	0
scalar IntersectionExampleScenario.node[519].nic.mac1609_4 	ReceivedBroadcasts 	0
scalar IntersectionExampleScenario.node[519].nic.mac1609_4 	SentPackets 	0
scalar IntersectionExampleScenario.node[519].nic.mac1609_4 	SNIRLostPackets 	0
scalar IntersectionExampleScenario.node[519].nic.mac1609_4 	RXTXLostPackets 	0
scalar IntersectionExampleScenario.node[519].nic.mac1609_4 	TotalLostPackets 	0
scalar IntersectionExampleScenario.node[519].nic.mac1609_4 	DroppedPacketsInMac 	0
scalar IntersectionExampleScenario.node[519].nic.mac1609_4 	TooLittleTime 	0
scalar IntersectionExampleScenario.node[519].nic.mac1609_4 	TimesIntoBackoff 	0
scalar IntersectionExampleScenario.node[519].nic.mac1609_4 	SlotsBackoff 	0
scalar IntersectionExampleScenario.node[519].nic.mac1609_4 	NumInternalContention 	0
scalar IntersectionExampleScenario.node[519].nic.mac1609_4 	totalBusyTime 	0
scalar IntersectionExampleScenario.node[519].veinsmobility 	startTime 	1778.25
scalar IntersectionExampleScenario.node[519].veinsmobility 	totalTime 	21.75
scalar IntersectionExampleScenario.node[519].veinsmobility 	stopTime 	1800
scalar IntersectionExampleScenario.node[519].veinsmobility 	minSpeed 	5.6500000953674
scalar IntersectionExampleScenario.node[519].veinsmobility 	maxSpeed 	14.39999961853
scalar IntersectionExampleScenario.node[519].veinsmobility 	totalDistance 	282.19842529297
scalar IntersectionExampleScenario.node[519].veinsmobility 	totalCO2Emission 	61.553458763984
scalar IntersectionExampleScenario.node[520].appl 	VehicleRemoved 	0
scalar IntersectionExampleScenario.node[520].appl 	ArrivedAtDest 	0
scalar IntersectionExampleScenario.node[520].appl 	IntersectionEnterTime 	1780.5
scalar IntersectionExampleScenario.node[520].appl 	IntersectionExitTime 	-1
scalar IntersectionExampleScenario.node[520].appl 	NumberOfCollisions 	0
scalar IntersectionExampleScenario.node[520].nic.phy80211p 	busyTime 	0
scalar IntersectionExampleScenario.node[520].nic.mac1609_4 	ReceivedUnicastPackets 	0
scalar IntersectionExampleScenario.node[520].nic.mac1609_4 	ReceivedBroadcasts 	0
scalar IntersectionExampleScenario.node[520].nic.mac1609_4 	SentPackets 	0
scalar IntersectionExampleScenario.node[520].nic.mac1609_4 	SNIRLostPackets 	0
scalar IntersectionExampleScenario.node[520].nic.mac1609_4 	RXTXLostPackets 	0
scalar IntersectionExampleScenario.node[520].nic.mac1609_4 	TotalLostPackets 	0
scalar IntersectionExampleScenario.node[520].nic.mac1609_4 	DroppedPacketsInMac 	0
scalar IntersectionExampleScenario.node[520].nic.mac1609_4 	TooLittleTime 	0
scalar IntersectionExampleScenario.node[520].nic.mac1609_4 	TimesIntoBackoff 	0
scalar IntersectionExampleScenario.node[520].nic.mac1609_4 	SlotsBackoff 	0
scalar IntersectionExampleScenario.node[520].nic.mac1609_4 	NumInternalContention 	0
scalar IntersectionExampleScenario.node[520].nic.mac1609_4 	totalBusyTime 	0
scalar IntersectionExampleScenario.node[520].veinsmobility 	startTime 	1780.5
scalar IntersectionExampleScenario.node[520].veinsmobility 	totalTime 	19.5
scalar IntersectionExampleScenario.node[520].veinsmobility 	stopTime 	1800
scalar IntersectionExampleScenario.node[520].veinsmobility 	minSpeed 	5.6500000953674
scalar IntersectionExampleScenario.node[520].veinsmobility 	maxSpeed 	15.756322860718
scalar IntersectionExampleScenario.node[520].veinsmobility 	totalDistance 	276.17655944824
scalar IntersectionExampleScenario.node[520].veinsmobility 	totalCO2Emission 	65.406183288985
scalar IntersectionExampleScenario.node[521].appl 	VehicleRemoved 	0
scalar IntersectionExampleScenario.node[521].appl 	ArrivedAtDest 	0
scalar IntersectionExampleScenario.node[521].appl 	IntersectionEnterTime 	1784.25
scalar IntersectionExampleScenario.node[521].appl 	IntersectionExitTime 	-1
scalar IntersectionExampleScenario.node[521].appl 	NumberOfCollisions 	0
scalar IntersectionExampleScenario.node[521].nic.phy80211p 	busyTime 	0
scalar IntersectionExampleScenario.node[521].nic.mac1609_4 	ReceivedUnicastPackets 	0
scalar IntersectionExampleScenario.node[521].nic.mac1609_4 	ReceivedBroadcasts 	0
scalar IntersectionExampleScenario.node[521].nic.mac1609_4 	SentPackets 	0
scalar IntersectionExampleScenario.node[521].nic.mac1609_4 	SNIRLostPackets 	0
scalar IntersectionExampleScenario.node[521].nic.mac1609_4 	RXTXLostPackets 	0
scalar IntersectionExampleScenario.node[521].nic.mac1609_4 	TotalLostPackets 	0
scalar IntersectionExampleScenario.node[521].nic.mac1609_4 	DroppedPacketsInMac 	0
scalar IntersectionExampleScenario.node[521].nic.mac1609_4 	TooLittleTime 	0
scalar IntersectionExampleScenario.node[521].nic.mac1609_4 	TimesIntoBackoff 	0
scalar IntersectionExampleScenario.node[521].nic.mac1609_4 	SlotsBackoff 	0
scalar IntersectionExampleScenario.node[521].nic.mac1609_4 	NumInternalContention 	0
scalar IntersectionExampleScenario.node[521].nic.mac1609_4 	totalBusyTime 	0
scalar IntersectionExampleScenario.node[521].veinsmobility 	startTime 	1784.25
scalar IntersectionExampleScenario.node[521].veinsmobility 	totalTime 	15.75
scalar IntersectionExampleScenario.node[521].veinsmobility 	stopTime 	1800
scalar IntersectionExampleScenario.node[521].veinsmobility 	minSpeed 	5.6500000953674
scalar IntersectionExampleScenario.node[521].veinsmobility 	maxSpeed 	15.02499961853
scalar IntersectionExampleScenario.node[521].veinsmobility 	totalDistance 	214.57392120361
scalar IntersectionExampleScenario.node[521].veinsmobility 	totalCO2Emission 	57.536164414598
scalar IntersectionExampleScenario.node[522].appl 	VehicleRemoved 	0
scalar IntersectionExampleScenario.node[522].appl 	ArrivedAtDest 	0
scalar IntersectionExampleScenario.node[522].appl 	IntersectionEnterTime 	1784.75
scalar IntersectionExampleScenario.node[522].appl 	IntersectionExitTime 	-1
scalar IntersectionExampleScenario.node[522].appl 	NumberOfCollisions 	0
scalar IntersectionExampleScenario.node[522].nic.phy80211p 	busyTime 	0
scalar IntersectionExampleScenario.node[522].nic.mac1609_4 	ReceivedUnicastPackets 	0
scalar IntersectionExampleScenario.node[522].nic.mac1609_4 	ReceivedBroadcasts 	0
scalar IntersectionExampleScenario.node[522].nic.mac1609_4 	SentPackets 	0
scalar IntersectionExampleScenario.node[522].nic.mac1609_4 	SNIRLostPackets 	0
scalar IntersectionExampleScenario.node[522].nic.mac1609_4 	RXTXLostPackets 	0
scalar IntersectionExampleScenario.node[522].nic.mac1609_4 	TotalLostPackets 	0
scalar IntersectionExampleScenario.node[522].nic.mac1609_4 	DroppedPacketsInMac 	0
scalar IntersectionExampleScenario.node[522].nic.mac1609_4 	TooLittleTime 	0
scalar IntersectionExampleScenario.node[522].nic.mac1609_4 	TimesIntoBackoff 	0
scalar IntersectionExampleScenario.node[522].nic.mac1609_4 	SlotsBackoff 	0
scalar IntersectionExampleScenario.node[522].nic.mac1609_4 	NumInternalContention 	0
scalar IntersectionExampleScenario.node[522].nic.mac1609_4 	totalBusyTime 	0
scalar IntersectionExampleScenario.node[522].veinsmobility 	startTime 	1784.75
scalar IntersectionExampleScenario.node[522].veinsmobility 	totalTime 	15.25
scalar IntersectionExampleScenario.node[522].veinsmobility 	stopTime 	1800
scalar IntersectionExampleScenario.node[522].veinsmobility 	minSpeed 	5.6500000953674
scalar IntersectionExampleScenario.node[522].veinsmobility 	maxSpeed 	15.778749465942
scalar IntersectionExampleScenario.node[522].veinsmobility 	totalDistance 	208.35932159424
scalar IntersectionExampleScenario.node[522].veinsmobility 	totalCO2Emission 	54.651167351089
scalar IntersectionExampleScenario.node[523].appl 	VehicleRemoved 	0
scalar IntersectionExampleScenario.node[523].appl 	ArrivedAtDest 	0
scalar IntersectionExampleScenario.node[523].appl 	IntersectionEnterTime 	1785.25
scalar IntersectionExampleScenario.node[523].appl 	IntersectionExitTime 	-1
scalar IntersectionExampleScenario.node[523].appl 	NumberOfCollisions 	0
scalar IntersectionExampleScenario.node[523].nic.phy80211p 	busyTime 	0
scalar IntersectionExampleScenario.node[523].nic.mac1609_4 	ReceivedUnicastPackets 	0
scalar IntersectionExampleScenario.node[523].nic.mac1609_4 	ReceivedBroadcasts 	0
scalar IntersectionExampleScenario.node[523].nic.mac1609_4 	SentPackets 	0
scalar IntersectionExampleScenario.node[523].nic.mac1609_4 	SNIRLostPackets 	0
scalar IntersectionExampleScenario.node[523].nic.mac1609_4 	RXTXLostPackets 	0
scalar IntersectionExampleScenario.node[523].nic.mac1609_4 	TotalLostPackets 	0
scalar IntersectionExampleScenario.node[523].nic.mac1609_4 	DroppedPacketsInMac 	0
scalar IntersectionExampleScenario.node[523].nic.mac1609_4 	TooLittleTime 	0
scalar IntersectionExampleScenario.node[523].nic.mac1609_4 	TimesIntoBackoff 	0
scalar IntersectionExampleScenario.node[523].nic.mac1609_4 	SlotsBackoff 	0
scalar IntersectionExampleScenario.node[523].nic.mac1609_4 	NumInternalContention 	0
scalar IntersectionExampleScenario.node[523].nic.mac1609_4 	totalBusyTime 	0
scalar IntersectionExampleScenario.node[523].veinsmobility 	startTime 	1785.25
scalar IntersectionExampleScenario.node[523].veinsmobility 	totalTime 	14.75
scalar IntersectionExampleScenario.node[523].veinsmobility 	stopTime 	1800
scalar IntersectionExampleScenario.node[523].veinsmobility 	minSpeed 	5.6500000953674
scalar IntersectionExampleScenario.node[523].veinsmobility 	maxSpeed 	15.02499961853
scalar IntersectionExampleScenario.node[523].veinsmobility 	totalDistance 	196.5412902832
scalar IntersectionExampleScenario.node[523].veinsmobility 	totalCO2Emission 	51.587817459861
scalar IntersectionExampleScenario.node[524].appl 	VehicleRemoved 	0
scalar IntersectionExampleScenario.node[524].appl 	ArrivedAtDest 	0
scalar IntersectionExampleScenario.node[524].appl 	IntersectionEnterTime 	1787.25
scalar IntersectionExampleScenario.node[524].appl 	IntersectionExitTime 	-1
scalar IntersectionExampleScenario.node[524].appl 	NumberOfCollisions 	0
scalar IntersectionExampleScenario.node[524].nic.phy80211p 	busyTime 	0
scalar IntersectionExampleScenario.node[524].nic.mac1609_4 	ReceivedUnicastPackets 	0
scalar IntersectionExampleScenario.node[524].nic.mac1609_4 	ReceivedBroadcasts 	0
scalar IntersectionExampleScenario.node[524].nic.mac1609_4 	SentPackets 	0
scalar IntersectionExampleScenario.node[524].nic.mac1609_4 	SNIRLostPackets 	0
scalar IntersectionExampleScenario.node[524].nic.mac1609_4 	RXTXLostPackets 	0
scalar IntersectionExampleScenario.node[524].nic.mac1609_4 	TotalLostPackets 	0
scalar IntersectionExampleScenario.node[524].nic.mac1609_4 	DroppedPacketsInMac 	0
scalar IntersectionExampleScenario.node[524].nic.mac1609_4 	TooLittleTime 	0
scalar IntersectionExampleScenario.node[524].nic.mac1609_4 	TimesIntoBackoff 	0
scalar IntersectionExampleScenario.node[524].nic.mac1609_4 	SlotsBackoff 	0
scalar IntersectionExampleScenario.node[524].nic.mac1609_4 	NumInternalContention 	0
scalar IntersectionExampleScenario.node[524].nic.mac1609_4 	totalBusyTime 	0
scalar IntersectionExampleScenario.node[524].veinsmobility 	startTime 	1787.25
scalar IntersectionExampleScenario.node[524].veinsmobility 	totalTime 	12.75
scalar IntersectionExampleScenario.node[524].veinsmobility 	stopTime 	1800
scalar IntersectionExampleScenario.node[524].veinsmobility 	minSpeed 	5.6500000953674
scalar IntersectionExampleScenario.node[524].veinsmobility 	maxSpeed 	15.02499961853
scalar IntersectionExampleScenario.node[524].veinsmobility 	totalDistance 	170.21471405029
scalar IntersectionExampleScenario.node[524].veinsmobility 	totalCO2Emission 	48.678379071805
scalar IntersectionExampleScenario.node[525].appl 	VehicleRemoved 	0
scalar IntersectionExampleScenario.node[525].appl 	ArrivedAtDest 	0
scalar IntersectionExampleScenario.node[525].appl 	IntersectionEnterTime 	1799.25
scalar IntersectionExampleScenario.node[525].appl 	IntersectionExitTime 	-1
scalar IntersectionExampleScenario.node[525].appl 	NumberOfCollisions 	0
scalar IntersectionExampleScenario.node[525].nic.phy80211p 	busyTime 	0
scalar IntersectionExampleScenario.node[525].nic.mac1609_4 	ReceivedUnicastPackets 	0
scalar IntersectionExampleScenario.node[525].nic.mac1609_4 	ReceivedBroadcasts 	0
scalar IntersectionExampleScenario.node[525].nic.mac1609_4 	SentPackets 	0
scalar IntersectionExampleScenario.node[525].nic.mac1609_4 	SNIRLostPackets 	0
scalar IntersectionExampleScenario.node[525].nic.mac1609_4 	RXTXLostPackets 	0
scalar IntersectionExampleScenario.node[525].nic.mac1609_4 	TotalLostPackets 	0
scalar IntersectionExampleScenario.node[525].nic.mac1609_4 	DroppedPacketsInMac 	0
scalar IntersectionExampleScenario.node[525].nic.mac1609_4 	TooLittleTime 	0
scalar IntersectionExampleScenario.node[525].nic.mac1609_4 	TimesIntoBackoff 	0
scalar IntersectionExampleScenario.node[525].nic.mac1609_4 	SlotsBackoff 	0
scalar IntersectionExampleScenario.node[525].nic.mac1609_4 	NumInternalContention 	0
scalar IntersectionExampleScenario.node[525].nic.mac1609_4 	totalBusyTime 	0
scalar IntersectionExampleScenario.node[525].veinsmobility 	startTime 	1799.25
scalar IntersectionExampleScenario.node[525].veinsmobility 	totalTime 	0.75
scalar IntersectionExampleScenario.node[525].veinsmobility 	stopTime 	1800
scalar IntersectionExampleScenario.node[525].veinsmobility 	minSpeed 	5.6500000953674
scalar IntersectionExampleScenario.node[525].veinsmobility 	maxSpeed 	6.9000000953674
scalar IntersectionExampleScenario.node[525].veinsmobility 	totalDistance 	4.471923828125
scalar IntersectionExampleScenario.node[525].veinsmobility 	totalCO2Emission 	2.7116680206665
