version 2
run nodebug-31-20200606-17:40:48-10964
attr configname nodebug
attr datetime 20200606-17:40:48
attr experiment nodebug
attr inifile omnetpp.ini
attr iterationvars ""
attr iterationvars2 $repetition=31
attr measurement ""
attr network "\"org.car2x.veins.modules.application.ExtTraCIScenarioManagerLaunchd.IntersectionExampleScenario\""
attr processid 10964
attr repetition 31
attr replication #31
attr resultdir results
attr runnumber 31
attr seedset 31
param **.coreDebug false
param **.debug false
param *.**.nic.mac1609_4.bitrate 18Mbps
param *.**.nic.mac1609_4.txPower 20mW
param *.**.nic.mac1609_4.useServiceChannel false
param *.**.nic.phy80211p.analogueModels "xmldoc(\"config.xml\")"
param *.**.nic.phy80211p.decider "xmldoc(\"config.xml\")"
param *.**.nic.phy80211p.sensitivity -89dBm
param *.**.nic.phy80211p.thermalNoise -110dBm
param *.**.nic.phy80211p.usePropagationDelay true
param *.**.nic.phy80211p.useThermalNoise true
param *.annotations.draw false
param *.connectionManager.alpha 2.0
param *.connectionManager.carrierFrequency "5.890e9 Hz"
param *.connectionManager.pMax 20mW
param *.connectionManager.sat -89dBm
param *.connectionManager.sendDirect true
param *.manager.autoShutdown true
param *.manager.host "\"localhost\""
param *.manager.launchConfig "xmldoc(\"paramics.launchd.xml\")"
param *.manager.margin 25
param *.manager.moduleDisplayString "\"\""
param *.manager.moduleName "\"node\""
param *.manager.moduleType "\"org.car2x.veins.nodes.Car\""
param *.manager.port 9999
param *.manager.updateInterval 250ms
param *.node[*0].veinsmobility.accidentCount 0
param *.node[*0].veinsmobility.accidentDuration 30s
param *.node[*0].veinsmobility.accidentStart 75s
param *.node[*].appl.LiderSelectZoneRadio 55.0
param *.node[*].appl.ShareDataZoneRadio 110.0
param *.node[*].appl.TiempoSemaforo 30.0
param *.node[*].appl.beaconInterval 1s
param *.node[*].appl.beaconPriority 3
param *.node[*].appl.dataOnSch false
param *.node[*].appl.dataPriority 2
param *.node[*].appl.debug false
param *.node[*].appl.headerLength "256 bit"
param *.node[*].appl.maxOffset 0.005s
param *.node[*].appl.sendBeacons false
param *.node[*].appl.sendData true
param *.node[*].applType "\"Dummy\""
param *.node[*].mobilityType "\"TraCIMobility\""
param *.node[*].mobilityType.debug true
param *.node[*].veinsmobility.x 0
param *.node[*].veinsmobility.y 0
param *.node[*].veinsmobility.z 1.895
param *.node[*].veinsmobilityType "\"org.car2x.veins.modules.mobility.traci.TraCIMobility\""
param *.node[*].veinsmobilityType.debug true
param *.playgroundSizeX 8500m
param *.playgroundSizeY 8500m
param *.playgroundSizeZ 50m
param *.world.use2D false
param *.world.useTorus false

scalar IntersectionExampleScenario.node[0].appl 	VehicleRemoved 	0
scalar IntersectionExampleScenario.node[0].appl 	ArrivedAtDest 	1
scalar IntersectionExampleScenario.node[0].appl 	IntersectionEnterTime 	2
scalar IntersectionExampleScenario.node[0].appl 	IntersectionExitTime 	38.623358750541
scalar IntersectionExampleScenario.node[0].appl 	NumberOfCollisions 	0
scalar IntersectionExampleScenario.node[0].nic.phy80211p 	busyTime 	0
scalar IntersectionExampleScenario.node[0].nic.mac1609_4 	ReceivedUnicastPackets 	0
scalar IntersectionExampleScenario.node[0].nic.mac1609_4 	ReceivedBroadcasts 	0
scalar IntersectionExampleScenario.node[0].nic.mac1609_4 	SentPackets 	0
scalar IntersectionExampleScenario.node[0].nic.mac1609_4 	SNIRLostPackets 	0
scalar IntersectionExampleScenario.node[0].nic.mac1609_4 	RXTXLostPackets 	0
scalar IntersectionExampleScenario.node[0].nic.mac1609_4 	TotalLostPackets 	0
scalar IntersectionExampleScenario.node[0].nic.mac1609_4 	DroppedPacketsInMac 	0
scalar IntersectionExampleScenario.node[0].nic.mac1609_4 	TooLittleTime 	0
scalar IntersectionExampleScenario.node[0].nic.mac1609_4 	TimesIntoBackoff 	0
scalar IntersectionExampleScenario.node[0].nic.mac1609_4 	SlotsBackoff 	0
scalar IntersectionExampleScenario.node[0].nic.mac1609_4 	NumInternalContention 	0
scalar IntersectionExampleScenario.node[0].nic.mac1609_4 	totalBusyTime 	0
scalar IntersectionExampleScenario.node[0].veinsmobility 	startTime 	2
scalar IntersectionExampleScenario.node[0].veinsmobility 	totalTime 	53
scalar IntersectionExampleScenario.node[0].veinsmobility 	stopTime 	55.25
scalar IntersectionExampleScenario.node[0].veinsmobility 	minSpeed 	0
scalar IntersectionExampleScenario.node[0].veinsmobility 	maxSpeed 	15.875
scalar IntersectionExampleScenario.node[0].veinsmobility 	totalDistance 	542.81210233123
scalar IntersectionExampleScenario.node[0].veinsmobility 	totalCO2Emission 	145.94022612696
scalar IntersectionExampleScenario.node[1].appl 	VehicleRemoved 	0
scalar IntersectionExampleScenario.node[1].appl 	ArrivedAtDest 	1
scalar IntersectionExampleScenario.node[1].appl 	IntersectionEnterTime 	3
scalar IntersectionExampleScenario.node[1].appl 	IntersectionExitTime 	40.258579814283
scalar IntersectionExampleScenario.node[1].appl 	NumberOfCollisions 	0
scalar IntersectionExampleScenario.node[1].nic.phy80211p 	busyTime 	0
scalar IntersectionExampleScenario.node[1].nic.mac1609_4 	ReceivedUnicastPackets 	0
scalar IntersectionExampleScenario.node[1].nic.mac1609_4 	ReceivedBroadcasts 	0
scalar IntersectionExampleScenario.node[1].nic.mac1609_4 	SentPackets 	0
scalar IntersectionExampleScenario.node[1].nic.mac1609_4 	SNIRLostPackets 	0
scalar IntersectionExampleScenario.node[1].nic.mac1609_4 	RXTXLostPackets 	0
scalar IntersectionExampleScenario.node[1].nic.mac1609_4 	TotalLostPackets 	0
scalar IntersectionExampleScenario.node[1].nic.mac1609_4 	DroppedPacketsInMac 	0
scalar IntersectionExampleScenario.node[1].nic.mac1609_4 	TooLittleTime 	0
scalar IntersectionExampleScenario.node[1].nic.mac1609_4 	TimesIntoBackoff 	0
scalar IntersectionExampleScenario.node[1].nic.mac1609_4 	SlotsBackoff 	0
scalar IntersectionExampleScenario.node[1].nic.mac1609_4 	NumInternalContention 	0
scalar IntersectionExampleScenario.node[1].nic.mac1609_4 	totalBusyTime 	0
scalar IntersectionExampleScenario.node[1].veinsmobility 	startTime 	3
scalar IntersectionExampleScenario.node[1].veinsmobility 	totalTime 	53.75
scalar IntersectionExampleScenario.node[1].veinsmobility 	stopTime 	57
scalar IntersectionExampleScenario.node[1].veinsmobility 	minSpeed 	0
scalar IntersectionExampleScenario.node[1].veinsmobility 	maxSpeed 	15.375
scalar IntersectionExampleScenario.node[1].veinsmobility 	totalDistance 	572.28019702526
scalar IntersectionExampleScenario.node[1].veinsmobility 	totalCO2Emission 	146.22628483676
scalar IntersectionExampleScenario.node[2].appl 	VehicleRemoved 	0
scalar IntersectionExampleScenario.node[2].appl 	ArrivedAtDest 	1
scalar IntersectionExampleScenario.node[2].appl 	IntersectionEnterTime 	23.25
scalar IntersectionExampleScenario.node[2].appl 	IntersectionExitTime 	46.29779915823
scalar IntersectionExampleScenario.node[2].appl 	NumberOfCollisions 	0
scalar IntersectionExampleScenario.node[2].nic.phy80211p 	busyTime 	0
scalar IntersectionExampleScenario.node[2].nic.mac1609_4 	ReceivedUnicastPackets 	0
scalar IntersectionExampleScenario.node[2].nic.mac1609_4 	ReceivedBroadcasts 	0
scalar IntersectionExampleScenario.node[2].nic.mac1609_4 	SentPackets 	0
scalar IntersectionExampleScenario.node[2].nic.mac1609_4 	SNIRLostPackets 	0
scalar IntersectionExampleScenario.node[2].nic.mac1609_4 	RXTXLostPackets 	0
scalar IntersectionExampleScenario.node[2].nic.mac1609_4 	TotalLostPackets 	0
scalar IntersectionExampleScenario.node[2].nic.mac1609_4 	DroppedPacketsInMac 	0
scalar IntersectionExampleScenario.node[2].nic.mac1609_4 	TooLittleTime 	0
scalar IntersectionExampleScenario.node[2].nic.mac1609_4 	TimesIntoBackoff 	0
scalar IntersectionExampleScenario.node[2].nic.mac1609_4 	SlotsBackoff 	0
scalar IntersectionExampleScenario.node[2].nic.mac1609_4 	NumInternalContention 	0
scalar IntersectionExampleScenario.node[2].nic.mac1609_4 	totalBusyTime 	0
scalar IntersectionExampleScenario.node[2].veinsmobility 	startTime 	23.25
scalar IntersectionExampleScenario.node[2].veinsmobility 	totalTime 	39
scalar IntersectionExampleScenario.node[2].veinsmobility 	stopTime 	62.5
scalar IntersectionExampleScenario.node[2].veinsmobility 	minSpeed 	5.6500000953674
scalar IntersectionExampleScenario.node[2].veinsmobility 	maxSpeed 	16
scalar IntersectionExampleScenario.node[2].veinsmobility 	totalDistance 	551.94969041539
scalar IntersectionExampleScenario.node[2].veinsmobility 	totalCO2Emission 	125.13138713895
scalar IntersectionExampleScenario.node[3].appl 	VehicleRemoved 	0
scalar IntersectionExampleScenario.node[3].appl 	ArrivedAtDest 	1
scalar IntersectionExampleScenario.node[3].appl 	IntersectionEnterTime 	30.25
scalar IntersectionExampleScenario.node[3].appl 	IntersectionExitTime 	53.024285748572
scalar IntersectionExampleScenario.node[3].appl 	NumberOfCollisions 	0
scalar IntersectionExampleScenario.node[3].nic.phy80211p 	busyTime 	0
scalar IntersectionExampleScenario.node[3].nic.mac1609_4 	ReceivedUnicastPackets 	0
scalar IntersectionExampleScenario.node[3].nic.mac1609_4 	ReceivedBroadcasts 	0
scalar IntersectionExampleScenario.node[3].nic.mac1609_4 	SentPackets 	0
scalar IntersectionExampleScenario.node[3].nic.mac1609_4 	SNIRLostPackets 	0
scalar IntersectionExampleScenario.node[3].nic.mac1609_4 	RXTXLostPackets 	0
scalar IntersectionExampleScenario.node[3].nic.mac1609_4 	TotalLostPackets 	0
scalar IntersectionExampleScenario.node[3].nic.mac1609_4 	DroppedPacketsInMac 	0
scalar IntersectionExampleScenario.node[3].nic.mac1609_4 	TooLittleTime 	0
scalar IntersectionExampleScenario.node[3].nic.mac1609_4 	TimesIntoBackoff 	0
scalar IntersectionExampleScenario.node[3].nic.mac1609_4 	SlotsBackoff 	0
scalar IntersectionExampleScenario.node[3].nic.mac1609_4 	NumInternalContention 	0
scalar IntersectionExampleScenario.node[3].nic.mac1609_4 	totalBusyTime 	0
scalar IntersectionExampleScenario.node[3].veinsmobility 	startTime 	30.25
scalar IntersectionExampleScenario.node[3].veinsmobility 	totalTime 	38.75
scalar IntersectionExampleScenario.node[3].veinsmobility 	stopTime 	69.25
scalar IntersectionExampleScenario.node[3].veinsmobility 	minSpeed 	5.6500000953674
scalar IntersectionExampleScenario.node[3].veinsmobility 	maxSpeed 	16.5
scalar IntersectionExampleScenario.node[3].veinsmobility 	totalDistance 	545.04346661028
scalar IntersectionExampleScenario.node[3].veinsmobility 	totalCO2Emission 	133.25564860272
scalar IntersectionExampleScenario.node[4].appl 	VehicleRemoved 	0
scalar IntersectionExampleScenario.node[4].appl 	ArrivedAtDest 	1
scalar IntersectionExampleScenario.node[4].appl 	IntersectionEnterTime 	33
scalar IntersectionExampleScenario.node[4].appl 	IntersectionExitTime 	74.3679538625
scalar IntersectionExampleScenario.node[4].appl 	NumberOfCollisions 	0
scalar IntersectionExampleScenario.node[4].nic.phy80211p 	busyTime 	0
scalar IntersectionExampleScenario.node[4].nic.mac1609_4 	ReceivedUnicastPackets 	0
scalar IntersectionExampleScenario.node[4].nic.mac1609_4 	ReceivedBroadcasts 	0
scalar IntersectionExampleScenario.node[4].nic.mac1609_4 	SentPackets 	0
scalar IntersectionExampleScenario.node[4].nic.mac1609_4 	SNIRLostPackets 	0
scalar IntersectionExampleScenario.node[4].nic.mac1609_4 	RXTXLostPackets 	0
scalar IntersectionExampleScenario.node[4].nic.mac1609_4 	TotalLostPackets 	0
scalar IntersectionExampleScenario.node[4].nic.mac1609_4 	DroppedPacketsInMac 	0
scalar IntersectionExampleScenario.node[4].nic.mac1609_4 	TooLittleTime 	0
scalar IntersectionExampleScenario.node[4].nic.mac1609_4 	TimesIntoBackoff 	0
scalar IntersectionExampleScenario.node[4].nic.mac1609_4 	SlotsBackoff 	0
scalar IntersectionExampleScenario.node[4].nic.mac1609_4 	NumInternalContention 	0
scalar IntersectionExampleScenario.node[4].nic.mac1609_4 	totalBusyTime 	0
scalar IntersectionExampleScenario.node[4].veinsmobility 	startTime 	33
scalar IntersectionExampleScenario.node[4].veinsmobility 	totalTime 	56.5
scalar IntersectionExampleScenario.node[4].veinsmobility 	stopTime 	89.75
scalar IntersectionExampleScenario.node[4].veinsmobility 	minSpeed 	0
scalar IntersectionExampleScenario.node[4].veinsmobility 	maxSpeed 	16.625
scalar IntersectionExampleScenario.node[4].veinsmobility 	totalDistance 	548.90238298526
scalar IntersectionExampleScenario.node[4].veinsmobility 	totalCO2Emission 	155.66817554843
scalar IntersectionExampleScenario.node[7].appl 	VehicleRemoved 	0
scalar IntersectionExampleScenario.node[7].appl 	ArrivedAtDest 	1
scalar IntersectionExampleScenario.node[7].appl 	IntersectionEnterTime 	43.25
scalar IntersectionExampleScenario.node[7].appl 	IntersectionExitTime 	74.297991909261
scalar IntersectionExampleScenario.node[7].appl 	NumberOfCollisions 	0
scalar IntersectionExampleScenario.node[7].nic.phy80211p 	busyTime 	0
scalar IntersectionExampleScenario.node[7].nic.mac1609_4 	ReceivedUnicastPackets 	0
scalar IntersectionExampleScenario.node[7].nic.mac1609_4 	ReceivedBroadcasts 	0
scalar IntersectionExampleScenario.node[7].nic.mac1609_4 	SentPackets 	0
scalar IntersectionExampleScenario.node[7].nic.mac1609_4 	SNIRLostPackets 	0
scalar IntersectionExampleScenario.node[7].nic.mac1609_4 	RXTXLostPackets 	0
scalar IntersectionExampleScenario.node[7].nic.mac1609_4 	TotalLostPackets 	0
scalar IntersectionExampleScenario.node[7].nic.mac1609_4 	DroppedPacketsInMac 	0
scalar IntersectionExampleScenario.node[7].nic.mac1609_4 	TooLittleTime 	0
scalar IntersectionExampleScenario.node[7].nic.mac1609_4 	TimesIntoBackoff 	0
scalar IntersectionExampleScenario.node[7].nic.mac1609_4 	SlotsBackoff 	0
scalar IntersectionExampleScenario.node[7].nic.mac1609_4 	NumInternalContention 	0
scalar IntersectionExampleScenario.node[7].nic.mac1609_4 	totalBusyTime 	0
scalar IntersectionExampleScenario.node[7].veinsmobility 	startTime 	43.25
scalar IntersectionExampleScenario.node[7].veinsmobility 	totalTime 	47
scalar IntersectionExampleScenario.node[7].veinsmobility 	stopTime 	90.5
scalar IntersectionExampleScenario.node[7].veinsmobility 	minSpeed 	0
scalar IntersectionExampleScenario.node[7].veinsmobility 	maxSpeed 	15.64999961853
scalar IntersectionExampleScenario.node[7].veinsmobility 	totalDistance 	549.96211351504
scalar IntersectionExampleScenario.node[7].veinsmobility 	totalCO2Emission 	139.72123815278
scalar IntersectionExampleScenario.node[6].appl 	VehicleRemoved 	0
scalar IntersectionExampleScenario.node[6].appl 	ArrivedAtDest 	1
scalar IntersectionExampleScenario.node[6].appl 	IntersectionEnterTime 	42
scalar IntersectionExampleScenario.node[6].appl 	IntersectionExitTime 	75.371808980854
scalar IntersectionExampleScenario.node[6].appl 	NumberOfCollisions 	0
scalar IntersectionExampleScenario.node[6].nic.phy80211p 	busyTime 	0
scalar IntersectionExampleScenario.node[6].nic.mac1609_4 	ReceivedUnicastPackets 	0
scalar IntersectionExampleScenario.node[6].nic.mac1609_4 	ReceivedBroadcasts 	0
scalar IntersectionExampleScenario.node[6].nic.mac1609_4 	SentPackets 	0
scalar IntersectionExampleScenario.node[6].nic.mac1609_4 	SNIRLostPackets 	0
scalar IntersectionExampleScenario.node[6].nic.mac1609_4 	RXTXLostPackets 	0
scalar IntersectionExampleScenario.node[6].nic.mac1609_4 	TotalLostPackets 	0
scalar IntersectionExampleScenario.node[6].nic.mac1609_4 	DroppedPacketsInMac 	0
scalar IntersectionExampleScenario.node[6].nic.mac1609_4 	TooLittleTime 	0
scalar IntersectionExampleScenario.node[6].nic.mac1609_4 	TimesIntoBackoff 	0
scalar IntersectionExampleScenario.node[6].nic.mac1609_4 	SlotsBackoff 	0
scalar IntersectionExampleScenario.node[6].nic.mac1609_4 	NumInternalContention 	0
scalar IntersectionExampleScenario.node[6].nic.mac1609_4 	totalBusyTime 	0
scalar IntersectionExampleScenario.node[6].veinsmobility 	startTime 	42
scalar IntersectionExampleScenario.node[6].veinsmobility 	totalTime 	50
scalar IntersectionExampleScenario.node[6].veinsmobility 	stopTime 	92.25
scalar IntersectionExampleScenario.node[6].veinsmobility 	minSpeed 	1.2995414733887
scalar IntersectionExampleScenario.node[6].veinsmobility 	maxSpeed 	15.02499961853
scalar IntersectionExampleScenario.node[6].veinsmobility 	totalDistance 	553.91944885254
scalar IntersectionExampleScenario.node[6].veinsmobility 	totalCO2Emission 	134.04694904361
scalar IntersectionExampleScenario.node[8].appl 	VehicleRemoved 	0
scalar IntersectionExampleScenario.node[8].appl 	ArrivedAtDest 	1
scalar IntersectionExampleScenario.node[8].appl 	IntersectionEnterTime 	55.75
scalar IntersectionExampleScenario.node[8].appl 	IntersectionExitTime 	78.779252080276
scalar IntersectionExampleScenario.node[8].appl 	NumberOfCollisions 	0
scalar IntersectionExampleScenario.node[8].nic.phy80211p 	busyTime 	0
scalar IntersectionExampleScenario.node[8].nic.mac1609_4 	ReceivedUnicastPackets 	0
scalar IntersectionExampleScenario.node[8].nic.mac1609_4 	ReceivedBroadcasts 	0
scalar IntersectionExampleScenario.node[8].nic.mac1609_4 	SentPackets 	0
scalar IntersectionExampleScenario.node[8].nic.mac1609_4 	SNIRLostPackets 	0
scalar IntersectionExampleScenario.node[8].nic.mac1609_4 	RXTXLostPackets 	0
scalar IntersectionExampleScenario.node[8].nic.mac1609_4 	TotalLostPackets 	0
scalar IntersectionExampleScenario.node[8].nic.mac1609_4 	DroppedPacketsInMac 	0
scalar IntersectionExampleScenario.node[8].nic.mac1609_4 	TooLittleTime 	0
scalar IntersectionExampleScenario.node[8].nic.mac1609_4 	TimesIntoBackoff 	0
scalar IntersectionExampleScenario.node[8].nic.mac1609_4 	SlotsBackoff 	0
scalar IntersectionExampleScenario.node[8].nic.mac1609_4 	NumInternalContention 	0
scalar IntersectionExampleScenario.node[8].nic.mac1609_4 	totalBusyTime 	0
scalar IntersectionExampleScenario.node[8].veinsmobility 	startTime 	55.75
scalar IntersectionExampleScenario.node[8].veinsmobility 	totalTime 	38.5
scalar IntersectionExampleScenario.node[8].veinsmobility 	stopTime 	94.5
scalar IntersectionExampleScenario.node[8].veinsmobility 	minSpeed 	5.6500000953674
scalar IntersectionExampleScenario.node[8].veinsmobility 	maxSpeed 	16.293121337891
scalar IntersectionExampleScenario.node[8].veinsmobility 	totalDistance 	552.01452636719
scalar IntersectionExampleScenario.node[8].veinsmobility 	totalCO2Emission 	133.71732038839
scalar IntersectionExampleScenario.node[9].appl 	VehicleRemoved 	0
scalar IntersectionExampleScenario.node[9].appl 	ArrivedAtDest 	1
scalar IntersectionExampleScenario.node[9].appl 	IntersectionEnterTime 	57.5
scalar IntersectionExampleScenario.node[9].appl 	IntersectionExitTime 	80.76049598286
scalar IntersectionExampleScenario.node[9].appl 	NumberOfCollisions 	0
scalar IntersectionExampleScenario.node[9].nic.phy80211p 	busyTime 	0
scalar IntersectionExampleScenario.node[9].nic.mac1609_4 	ReceivedUnicastPackets 	0
scalar IntersectionExampleScenario.node[9].nic.mac1609_4 	ReceivedBroadcasts 	0
scalar IntersectionExampleScenario.node[9].nic.mac1609_4 	SentPackets 	0
scalar IntersectionExampleScenario.node[9].nic.mac1609_4 	SNIRLostPackets 	0
scalar IntersectionExampleScenario.node[9].nic.mac1609_4 	RXTXLostPackets 	0
scalar IntersectionExampleScenario.node[9].nic.mac1609_4 	TotalLostPackets 	0
scalar IntersectionExampleScenario.node[9].nic.mac1609_4 	DroppedPacketsInMac 	0
scalar IntersectionExampleScenario.node[9].nic.mac1609_4 	TooLittleTime 	0
scalar IntersectionExampleScenario.node[9].nic.mac1609_4 	TimesIntoBackoff 	0
scalar IntersectionExampleScenario.node[9].nic.mac1609_4 	SlotsBackoff 	0
scalar IntersectionExampleScenario.node[9].nic.mac1609_4 	NumInternalContention 	0
scalar IntersectionExampleScenario.node[9].nic.mac1609_4 	totalBusyTime 	0
scalar IntersectionExampleScenario.node[9].veinsmobility 	startTime 	57.5
scalar IntersectionExampleScenario.node[9].veinsmobility 	totalTime 	39.5
scalar IntersectionExampleScenario.node[9].veinsmobility 	stopTime 	97.25
scalar IntersectionExampleScenario.node[9].veinsmobility 	minSpeed 	5.6500000953674
scalar IntersectionExampleScenario.node[9].veinsmobility 	maxSpeed 	15.875
scalar IntersectionExampleScenario.node[9].veinsmobility 	totalDistance 	542.80815832728
scalar IntersectionExampleScenario.node[9].veinsmobility 	totalCO2Emission 	128.23483209099
scalar IntersectionExampleScenario.node[5].appl 	VehicleRemoved 	0
scalar IntersectionExampleScenario.node[5].appl 	ArrivedAtDest 	1
scalar IntersectionExampleScenario.node[5].appl 	IntersectionEnterTime 	42
scalar IntersectionExampleScenario.node[5].appl 	IntersectionExitTime 	87.353248800588
scalar IntersectionExampleScenario.node[5].appl 	NumberOfCollisions 	0
scalar IntersectionExampleScenario.node[5].nic.phy80211p 	busyTime 	0
scalar IntersectionExampleScenario.node[5].nic.mac1609_4 	ReceivedUnicastPackets 	0
scalar IntersectionExampleScenario.node[5].nic.mac1609_4 	ReceivedBroadcasts 	0
scalar IntersectionExampleScenario.node[5].nic.mac1609_4 	SentPackets 	0
scalar IntersectionExampleScenario.node[5].nic.mac1609_4 	SNIRLostPackets 	0
scalar IntersectionExampleScenario.node[5].nic.mac1609_4 	RXTXLostPackets 	0
scalar IntersectionExampleScenario.node[5].nic.mac1609_4 	TotalLostPackets 	0
scalar IntersectionExampleScenario.node[5].nic.mac1609_4 	DroppedPacketsInMac 	0
scalar IntersectionExampleScenario.node[5].nic.mac1609_4 	TooLittleTime 	0
scalar IntersectionExampleScenario.node[5].nic.mac1609_4 	TimesIntoBackoff 	0
scalar IntersectionExampleScenario.node[5].nic.mac1609_4 	SlotsBackoff 	0
scalar IntersectionExampleScenario.node[5].nic.mac1609_4 	NumInternalContention 	0
scalar IntersectionExampleScenario.node[5].nic.mac1609_4 	totalBusyTime 	0
scalar IntersectionExampleScenario.node[5].veinsmobility 	startTime 	42
scalar IntersectionExampleScenario.node[5].veinsmobility 	totalTime 	61.25
scalar IntersectionExampleScenario.node[5].veinsmobility 	stopTime 	103.5
scalar IntersectionExampleScenario.node[5].veinsmobility 	minSpeed 	0
scalar IntersectionExampleScenario.node[5].veinsmobility 	maxSpeed 	15.64999961853
scalar IntersectionExampleScenario.node[5].veinsmobility 	totalDistance 	554.18723297119
scalar IntersectionExampleScenario.node[5].veinsmobility 	totalCO2Emission 	154.29019230539
scalar IntersectionExampleScenario.node[10].appl 	VehicleRemoved 	0
scalar IntersectionExampleScenario.node[10].appl 	ArrivedAtDest 	1
scalar IntersectionExampleScenario.node[10].appl 	IntersectionEnterTime 	62.25
scalar IntersectionExampleScenario.node[10].appl 	IntersectionExitTime 	89.782799580687
scalar IntersectionExampleScenario.node[10].appl 	NumberOfCollisions 	0
scalar IntersectionExampleScenario.node[10].nic.phy80211p 	busyTime 	0
scalar IntersectionExampleScenario.node[10].nic.mac1609_4 	ReceivedUnicastPackets 	0
scalar IntersectionExampleScenario.node[10].nic.mac1609_4 	ReceivedBroadcasts 	0
scalar IntersectionExampleScenario.node[10].nic.mac1609_4 	SentPackets 	0
scalar IntersectionExampleScenario.node[10].nic.mac1609_4 	SNIRLostPackets 	0
scalar IntersectionExampleScenario.node[10].nic.mac1609_4 	RXTXLostPackets 	0
scalar IntersectionExampleScenario.node[10].nic.mac1609_4 	TotalLostPackets 	0
scalar IntersectionExampleScenario.node[10].nic.mac1609_4 	DroppedPacketsInMac 	0
scalar IntersectionExampleScenario.node[10].nic.mac1609_4 	TooLittleTime 	0
scalar IntersectionExampleScenario.node[10].nic.mac1609_4 	TimesIntoBackoff 	0
scalar IntersectionExampleScenario.node[10].nic.mac1609_4 	SlotsBackoff 	0
scalar IntersectionExampleScenario.node[10].nic.mac1609_4 	NumInternalContention 	0
scalar IntersectionExampleScenario.node[10].nic.mac1609_4 	totalBusyTime 	0
scalar IntersectionExampleScenario.node[10].veinsmobility 	startTime 	62.25
scalar IntersectionExampleScenario.node[10].veinsmobility 	totalTime 	42.75
scalar IntersectionExampleScenario.node[10].veinsmobility 	stopTime 	105.25
scalar IntersectionExampleScenario.node[10].veinsmobility 	minSpeed 	4.8170304298401
scalar IntersectionExampleScenario.node[10].veinsmobility 	maxSpeed 	16.27499961853
scalar IntersectionExampleScenario.node[10].veinsmobility 	totalDistance 	551.10520172119
scalar IntersectionExampleScenario.node[10].veinsmobility 	totalCO2Emission 	135.92248987295
scalar IntersectionExampleScenario.node[11].appl 	VehicleRemoved 	0
scalar IntersectionExampleScenario.node[11].appl 	ArrivedAtDest 	1
scalar IntersectionExampleScenario.node[11].appl 	IntersectionEnterTime 	64
scalar IntersectionExampleScenario.node[11].appl 	IntersectionExitTime 	92.003104141128
scalar IntersectionExampleScenario.node[11].appl 	NumberOfCollisions 	0
scalar IntersectionExampleScenario.node[11].nic.phy80211p 	busyTime 	0
scalar IntersectionExampleScenario.node[11].nic.mac1609_4 	ReceivedUnicastPackets 	0
scalar IntersectionExampleScenario.node[11].nic.mac1609_4 	ReceivedBroadcasts 	0
scalar IntersectionExampleScenario.node[11].nic.mac1609_4 	SentPackets 	0
scalar IntersectionExampleScenario.node[11].nic.mac1609_4 	SNIRLostPackets 	0
scalar IntersectionExampleScenario.node[11].nic.mac1609_4 	RXTXLostPackets 	0
scalar IntersectionExampleScenario.node[11].nic.mac1609_4 	TotalLostPackets 	0
scalar IntersectionExampleScenario.node[11].nic.mac1609_4 	DroppedPacketsInMac 	0
scalar IntersectionExampleScenario.node[11].nic.mac1609_4 	TooLittleTime 	0
scalar IntersectionExampleScenario.node[11].nic.mac1609_4 	TimesIntoBackoff 	0
scalar IntersectionExampleScenario.node[11].nic.mac1609_4 	SlotsBackoff 	0
scalar IntersectionExampleScenario.node[11].nic.mac1609_4 	NumInternalContention 	0
scalar IntersectionExampleScenario.node[11].nic.mac1609_4 	totalBusyTime 	0
scalar IntersectionExampleScenario.node[11].veinsmobility 	startTime 	64
scalar IntersectionExampleScenario.node[11].veinsmobility 	totalTime 	43.75
scalar IntersectionExampleScenario.node[11].veinsmobility 	stopTime 	108
scalar IntersectionExampleScenario.node[11].veinsmobility 	minSpeed 	4.9745516777039
scalar IntersectionExampleScenario.node[11].veinsmobility 	maxSpeed 	16.27499961853
scalar IntersectionExampleScenario.node[11].veinsmobility 	totalDistance 	568.07891923476
scalar IntersectionExampleScenario.node[11].veinsmobility 	totalCO2Emission 	148.01265857563
scalar IntersectionExampleScenario.node[13].appl 	VehicleRemoved 	0
scalar IntersectionExampleScenario.node[13].appl 	ArrivedAtDest 	1
scalar IntersectionExampleScenario.node[13].appl 	IntersectionEnterTime 	70.5
scalar IntersectionExampleScenario.node[13].appl 	IntersectionExitTime 	95.066159947397
scalar IntersectionExampleScenario.node[13].appl 	NumberOfCollisions 	0
scalar IntersectionExampleScenario.node[13].nic.phy80211p 	busyTime 	0
scalar IntersectionExampleScenario.node[13].nic.mac1609_4 	ReceivedUnicastPackets 	0
scalar IntersectionExampleScenario.node[13].nic.mac1609_4 	ReceivedBroadcasts 	0
scalar IntersectionExampleScenario.node[13].nic.mac1609_4 	SentPackets 	0
scalar IntersectionExampleScenario.node[13].nic.mac1609_4 	SNIRLostPackets 	0
scalar IntersectionExampleScenario.node[13].nic.mac1609_4 	RXTXLostPackets 	0
scalar IntersectionExampleScenario.node[13].nic.mac1609_4 	TotalLostPackets 	0
scalar IntersectionExampleScenario.node[13].nic.mac1609_4 	DroppedPacketsInMac 	0
scalar IntersectionExampleScenario.node[13].nic.mac1609_4 	TooLittleTime 	0
scalar IntersectionExampleScenario.node[13].nic.mac1609_4 	TimesIntoBackoff 	0
scalar IntersectionExampleScenario.node[13].nic.mac1609_4 	SlotsBackoff 	0
scalar IntersectionExampleScenario.node[13].nic.mac1609_4 	NumInternalContention 	0
scalar IntersectionExampleScenario.node[13].nic.mac1609_4 	totalBusyTime 	0
scalar IntersectionExampleScenario.node[13].veinsmobility 	startTime 	70.5
scalar IntersectionExampleScenario.node[13].veinsmobility 	totalTime 	41.5
scalar IntersectionExampleScenario.node[13].veinsmobility 	stopTime 	112.25
scalar IntersectionExampleScenario.node[13].veinsmobility 	minSpeed 	5.6500000953674
scalar IntersectionExampleScenario.node[13].veinsmobility 	maxSpeed 	15.25
scalar IntersectionExampleScenario.node[13].veinsmobility 	totalDistance 	545.27815584896
scalar IntersectionExampleScenario.node[13].veinsmobility 	totalCO2Emission 	130.92794971762
scalar IntersectionExampleScenario.node[12].appl 	VehicleRemoved 	0
scalar IntersectionExampleScenario.node[12].appl 	ArrivedAtDest 	1
scalar IntersectionExampleScenario.node[12].appl 	IntersectionEnterTime 	69.25
scalar IntersectionExampleScenario.node[12].appl 	IntersectionExitTime 	109.29378822242
scalar IntersectionExampleScenario.node[12].appl 	NumberOfCollisions 	0
scalar IntersectionExampleScenario.node[12].nic.phy80211p 	busyTime 	0
scalar IntersectionExampleScenario.node[12].nic.mac1609_4 	ReceivedUnicastPackets 	0
scalar IntersectionExampleScenario.node[12].nic.mac1609_4 	ReceivedBroadcasts 	0
scalar IntersectionExampleScenario.node[12].nic.mac1609_4 	SentPackets 	0
scalar IntersectionExampleScenario.node[12].nic.mac1609_4 	SNIRLostPackets 	0
scalar IntersectionExampleScenario.node[12].nic.mac1609_4 	RXTXLostPackets 	0
scalar IntersectionExampleScenario.node[12].nic.mac1609_4 	TotalLostPackets 	0
scalar IntersectionExampleScenario.node[12].nic.mac1609_4 	DroppedPacketsInMac 	0
scalar IntersectionExampleScenario.node[12].nic.mac1609_4 	TooLittleTime 	0
scalar IntersectionExampleScenario.node[12].nic.mac1609_4 	TimesIntoBackoff 	0
scalar IntersectionExampleScenario.node[12].nic.mac1609_4 	SlotsBackoff 	0
scalar IntersectionExampleScenario.node[12].nic.mac1609_4 	NumInternalContention 	0
scalar IntersectionExampleScenario.node[12].nic.mac1609_4 	totalBusyTime 	0
scalar IntersectionExampleScenario.node[12].veinsmobility 	startTime 	69.25
scalar IntersectionExampleScenario.node[12].veinsmobility 	totalTime 	55
scalar IntersectionExampleScenario.node[12].veinsmobility 	stopTime 	124.5
scalar IntersectionExampleScenario.node[12].veinsmobility 	minSpeed 	0
scalar IntersectionExampleScenario.node[12].veinsmobility 	maxSpeed 	16.89999961853
scalar IntersectionExampleScenario.node[12].veinsmobility 	totalDistance 	552.88785552979
scalar IntersectionExampleScenario.node[12].veinsmobility 	totalCO2Emission 	157.20678606229
scalar IntersectionExampleScenario.node[14].appl 	VehicleRemoved 	0
scalar IntersectionExampleScenario.node[14].appl 	ArrivedAtDest 	1
scalar IntersectionExampleScenario.node[14].appl 	IntersectionEnterTime 	77.25
scalar IntersectionExampleScenario.node[14].appl 	IntersectionExitTime 	110.32009782334
scalar IntersectionExampleScenario.node[14].appl 	NumberOfCollisions 	0
scalar IntersectionExampleScenario.node[14].nic.phy80211p 	busyTime 	0
scalar IntersectionExampleScenario.node[14].nic.mac1609_4 	ReceivedUnicastPackets 	0
scalar IntersectionExampleScenario.node[14].nic.mac1609_4 	ReceivedBroadcasts 	0
scalar IntersectionExampleScenario.node[14].nic.mac1609_4 	SentPackets 	0
scalar IntersectionExampleScenario.node[14].nic.mac1609_4 	SNIRLostPackets 	0
scalar IntersectionExampleScenario.node[14].nic.mac1609_4 	RXTXLostPackets 	0
scalar IntersectionExampleScenario.node[14].nic.mac1609_4 	TotalLostPackets 	0
scalar IntersectionExampleScenario.node[14].nic.mac1609_4 	DroppedPacketsInMac 	0
scalar IntersectionExampleScenario.node[14].nic.mac1609_4 	TooLittleTime 	0
scalar IntersectionExampleScenario.node[14].nic.mac1609_4 	TimesIntoBackoff 	0
scalar IntersectionExampleScenario.node[14].nic.mac1609_4 	SlotsBackoff 	0
scalar IntersectionExampleScenario.node[14].nic.mac1609_4 	NumInternalContention 	0
scalar IntersectionExampleScenario.node[14].nic.mac1609_4 	totalBusyTime 	0
scalar IntersectionExampleScenario.node[14].veinsmobility 	startTime 	77.25
scalar IntersectionExampleScenario.node[14].veinsmobility 	totalTime 	48.25
scalar IntersectionExampleScenario.node[14].veinsmobility 	stopTime 	125.75
scalar IntersectionExampleScenario.node[14].veinsmobility 	minSpeed 	0.97061032056808
scalar IntersectionExampleScenario.node[14].veinsmobility 	maxSpeed 	16.89999961853
scalar IntersectionExampleScenario.node[14].veinsmobility 	totalDistance 	549.90401917248
scalar IntersectionExampleScenario.node[14].veinsmobility 	totalCO2Emission 	145.83091332859
scalar IntersectionExampleScenario.node[15].appl 	VehicleRemoved 	0
scalar IntersectionExampleScenario.node[15].appl 	ArrivedAtDest 	1
scalar IntersectionExampleScenario.node[15].appl 	IntersectionEnterTime 	93.75
scalar IntersectionExampleScenario.node[15].appl 	IntersectionExitTime 	116.55780994971
scalar IntersectionExampleScenario.node[15].appl 	NumberOfCollisions 	0
scalar IntersectionExampleScenario.node[15].nic.phy80211p 	busyTime 	0
scalar IntersectionExampleScenario.node[15].nic.mac1609_4 	ReceivedUnicastPackets 	0
scalar IntersectionExampleScenario.node[15].nic.mac1609_4 	ReceivedBroadcasts 	0
scalar IntersectionExampleScenario.node[15].nic.mac1609_4 	SentPackets 	0
scalar IntersectionExampleScenario.node[15].nic.mac1609_4 	SNIRLostPackets 	0
scalar IntersectionExampleScenario.node[15].nic.mac1609_4 	RXTXLostPackets 	0
scalar IntersectionExampleScenario.node[15].nic.mac1609_4 	TotalLostPackets 	0
scalar IntersectionExampleScenario.node[15].nic.mac1609_4 	DroppedPacketsInMac 	0
scalar IntersectionExampleScenario.node[15].nic.mac1609_4 	TooLittleTime 	0
scalar IntersectionExampleScenario.node[15].nic.mac1609_4 	TimesIntoBackoff 	0
scalar IntersectionExampleScenario.node[15].nic.mac1609_4 	SlotsBackoff 	0
scalar IntersectionExampleScenario.node[15].nic.mac1609_4 	NumInternalContention 	0
scalar IntersectionExampleScenario.node[15].nic.mac1609_4 	totalBusyTime 	0
scalar IntersectionExampleScenario.node[15].veinsmobility 	startTime 	93.75
scalar IntersectionExampleScenario.node[15].veinsmobility 	totalTime 	38.75
scalar IntersectionExampleScenario.node[15].veinsmobility 	stopTime 	132.75
scalar IntersectionExampleScenario.node[15].veinsmobility 	minSpeed 	5.6500000953674
scalar IntersectionExampleScenario.node[15].veinsmobility 	maxSpeed 	15.64999961853
scalar IntersectionExampleScenario.node[15].veinsmobility 	totalDistance 	552.89630126953
scalar IntersectionExampleScenario.node[15].veinsmobility 	totalCO2Emission 	117.69084027776
scalar IntersectionExampleScenario.node[16].appl 	VehicleRemoved 	0
scalar IntersectionExampleScenario.node[16].appl 	ArrivedAtDest 	1
scalar IntersectionExampleScenario.node[16].appl 	IntersectionEnterTime 	94
scalar IntersectionExampleScenario.node[16].appl 	IntersectionExitTime 	117.55611782003
scalar IntersectionExampleScenario.node[16].appl 	NumberOfCollisions 	0
scalar IntersectionExampleScenario.node[16].nic.phy80211p 	busyTime 	0
scalar IntersectionExampleScenario.node[16].nic.mac1609_4 	ReceivedUnicastPackets 	0
scalar IntersectionExampleScenario.node[16].nic.mac1609_4 	ReceivedBroadcasts 	0
scalar IntersectionExampleScenario.node[16].nic.mac1609_4 	SentPackets 	0
scalar IntersectionExampleScenario.node[16].nic.mac1609_4 	SNIRLostPackets 	0
scalar IntersectionExampleScenario.node[16].nic.mac1609_4 	RXTXLostPackets 	0
scalar IntersectionExampleScenario.node[16].nic.mac1609_4 	TotalLostPackets 	0
scalar IntersectionExampleScenario.node[16].nic.mac1609_4 	DroppedPacketsInMac 	0
scalar IntersectionExampleScenario.node[16].nic.mac1609_4 	TooLittleTime 	0
scalar IntersectionExampleScenario.node[16].nic.mac1609_4 	TimesIntoBackoff 	0
scalar IntersectionExampleScenario.node[16].nic.mac1609_4 	SlotsBackoff 	0
scalar IntersectionExampleScenario.node[16].nic.mac1609_4 	NumInternalContention 	0
scalar IntersectionExampleScenario.node[16].nic.mac1609_4 	totalBusyTime 	0
scalar IntersectionExampleScenario.node[16].veinsmobility 	startTime 	94
scalar IntersectionExampleScenario.node[16].veinsmobility 	totalTime 	40
scalar IntersectionExampleScenario.node[16].veinsmobility 	stopTime 	134.25
scalar IntersectionExampleScenario.node[16].veinsmobility 	minSpeed 	5.6500000953674
scalar IntersectionExampleScenario.node[16].veinsmobility 	maxSpeed 	15.02499961853
scalar IntersectionExampleScenario.node[16].veinsmobility 	totalDistance 	551.98734283447
scalar IntersectionExampleScenario.node[16].veinsmobility 	totalCO2Emission 	113.58977997837
scalar IntersectionExampleScenario.node[17].appl 	VehicleRemoved 	0
scalar IntersectionExampleScenario.node[17].appl 	ArrivedAtDest 	1
scalar IntersectionExampleScenario.node[17].appl 	IntersectionEnterTime 	94.5
scalar IntersectionExampleScenario.node[17].appl 	IntersectionExitTime 	119.50251203042
scalar IntersectionExampleScenario.node[17].appl 	NumberOfCollisions 	0
scalar IntersectionExampleScenario.node[17].nic.phy80211p 	busyTime 	0
scalar IntersectionExampleScenario.node[17].nic.mac1609_4 	ReceivedUnicastPackets 	0
scalar IntersectionExampleScenario.node[17].nic.mac1609_4 	ReceivedBroadcasts 	0
scalar IntersectionExampleScenario.node[17].nic.mac1609_4 	SentPackets 	0
scalar IntersectionExampleScenario.node[17].nic.mac1609_4 	SNIRLostPackets 	0
scalar IntersectionExampleScenario.node[17].nic.mac1609_4 	RXTXLostPackets 	0
scalar IntersectionExampleScenario.node[17].nic.mac1609_4 	TotalLostPackets 	0
scalar IntersectionExampleScenario.node[17].nic.mac1609_4 	DroppedPacketsInMac 	0
scalar IntersectionExampleScenario.node[17].nic.mac1609_4 	TooLittleTime 	0
scalar IntersectionExampleScenario.node[17].nic.mac1609_4 	TimesIntoBackoff 	0
scalar IntersectionExampleScenario.node[17].nic.mac1609_4 	SlotsBackoff 	0
scalar IntersectionExampleScenario.node[17].nic.mac1609_4 	NumInternalContention 	0
scalar IntersectionExampleScenario.node[17].nic.mac1609_4 	totalBusyTime 	0
scalar IntersectionExampleScenario.node[17].veinsmobility 	startTime 	94.5
scalar IntersectionExampleScenario.node[17].veinsmobility 	totalTime 	41.5
scalar IntersectionExampleScenario.node[17].veinsmobility 	stopTime 	136.25
scalar IntersectionExampleScenario.node[17].veinsmobility 	minSpeed 	5.6500000953674
scalar IntersectionExampleScenario.node[17].veinsmobility 	maxSpeed 	15.875
scalar IntersectionExampleScenario.node[17].veinsmobility 	totalDistance 	569.48068166976
scalar IntersectionExampleScenario.node[17].veinsmobility 	totalCO2Emission 	131.45668323009
scalar IntersectionExampleScenario.node[19].appl 	VehicleRemoved 	0
scalar IntersectionExampleScenario.node[19].appl 	ArrivedAtDest 	1
scalar IntersectionExampleScenario.node[19].appl 	IntersectionEnterTime 	100.5
scalar IntersectionExampleScenario.node[19].appl 	IntersectionExitTime 	132.77942214551
scalar IntersectionExampleScenario.node[19].appl 	NumberOfCollisions 	0
scalar IntersectionExampleScenario.node[19].nic.phy80211p 	busyTime 	0
scalar IntersectionExampleScenario.node[19].nic.mac1609_4 	ReceivedUnicastPackets 	0
scalar IntersectionExampleScenario.node[19].nic.mac1609_4 	ReceivedBroadcasts 	0
scalar IntersectionExampleScenario.node[19].nic.mac1609_4 	SentPackets 	0
scalar IntersectionExampleScenario.node[19].nic.mac1609_4 	SNIRLostPackets 	0
scalar IntersectionExampleScenario.node[19].nic.mac1609_4 	RXTXLostPackets 	0
scalar IntersectionExampleScenario.node[19].nic.mac1609_4 	TotalLostPackets 	0
scalar IntersectionExampleScenario.node[19].nic.mac1609_4 	DroppedPacketsInMac 	0
scalar IntersectionExampleScenario.node[19].nic.mac1609_4 	TooLittleTime 	0
scalar IntersectionExampleScenario.node[19].nic.mac1609_4 	TimesIntoBackoff 	0
scalar IntersectionExampleScenario.node[19].nic.mac1609_4 	SlotsBackoff 	0
scalar IntersectionExampleScenario.node[19].nic.mac1609_4 	NumInternalContention 	0
scalar IntersectionExampleScenario.node[19].nic.mac1609_4 	totalBusyTime 	0
scalar IntersectionExampleScenario.node[19].veinsmobility 	startTime 	100.5
scalar IntersectionExampleScenario.node[19].veinsmobility 	totalTime 	48.75
scalar IntersectionExampleScenario.node[19].veinsmobility 	stopTime 	149.5
scalar IntersectionExampleScenario.node[19].veinsmobility 	minSpeed 	0
scalar IntersectionExampleScenario.node[19].veinsmobility 	maxSpeed 	15.375
scalar IntersectionExampleScenario.node[19].veinsmobility 	totalDistance 	549.2184231801
scalar IntersectionExampleScenario.node[19].veinsmobility 	totalCO2Emission 	138.07087419773
scalar IntersectionExampleScenario.node[21].appl 	VehicleRemoved 	0
scalar IntersectionExampleScenario.node[21].appl 	ArrivedAtDest 	1
scalar IntersectionExampleScenario.node[21].appl 	IntersectionEnterTime 	109.75
scalar IntersectionExampleScenario.node[21].appl 	IntersectionExitTime 	136.05402243597
scalar IntersectionExampleScenario.node[21].appl 	NumberOfCollisions 	0
scalar IntersectionExampleScenario.node[21].nic.phy80211p 	busyTime 	0
scalar IntersectionExampleScenario.node[21].nic.mac1609_4 	ReceivedUnicastPackets 	0
scalar IntersectionExampleScenario.node[21].nic.mac1609_4 	ReceivedBroadcasts 	0
scalar IntersectionExampleScenario.node[21].nic.mac1609_4 	SentPackets 	0
scalar IntersectionExampleScenario.node[21].nic.mac1609_4 	SNIRLostPackets 	0
scalar IntersectionExampleScenario.node[21].nic.mac1609_4 	RXTXLostPackets 	0
scalar IntersectionExampleScenario.node[21].nic.mac1609_4 	TotalLostPackets 	0
scalar IntersectionExampleScenario.node[21].nic.mac1609_4 	DroppedPacketsInMac 	0
scalar IntersectionExampleScenario.node[21].nic.mac1609_4 	TooLittleTime 	0
scalar IntersectionExampleScenario.node[21].nic.mac1609_4 	TimesIntoBackoff 	0
scalar IntersectionExampleScenario.node[21].nic.mac1609_4 	SlotsBackoff 	0
scalar IntersectionExampleScenario.node[21].nic.mac1609_4 	NumInternalContention 	0
scalar IntersectionExampleScenario.node[21].nic.mac1609_4 	totalBusyTime 	0
scalar IntersectionExampleScenario.node[21].veinsmobility 	startTime 	109.75
scalar IntersectionExampleScenario.node[21].veinsmobility 	totalTime 	43.25
scalar IntersectionExampleScenario.node[21].veinsmobility 	stopTime 	153.25
scalar IntersectionExampleScenario.node[21].veinsmobility 	minSpeed 	5.6500000953674
scalar IntersectionExampleScenario.node[21].veinsmobility 	maxSpeed 	15.25
scalar IntersectionExampleScenario.node[21].veinsmobility 	totalDistance 	545.19614297308
scalar IntersectionExampleScenario.node[21].veinsmobility 	totalCO2Emission 	136.07505495292
scalar IntersectionExampleScenario.node[18].appl 	VehicleRemoved 	0
scalar IntersectionExampleScenario.node[18].appl 	ArrivedAtDest 	1
scalar IntersectionExampleScenario.node[18].appl 	IntersectionEnterTime 	100
scalar IntersectionExampleScenario.node[18].appl 	IntersectionExitTime 	144.26992832878
scalar IntersectionExampleScenario.node[18].appl 	NumberOfCollisions 	0
scalar IntersectionExampleScenario.node[18].nic.phy80211p 	busyTime 	0
scalar IntersectionExampleScenario.node[18].nic.mac1609_4 	ReceivedUnicastPackets 	0
scalar IntersectionExampleScenario.node[18].nic.mac1609_4 	ReceivedBroadcasts 	0
scalar IntersectionExampleScenario.node[18].nic.mac1609_4 	SentPackets 	0
scalar IntersectionExampleScenario.node[18].nic.mac1609_4 	SNIRLostPackets 	0
scalar IntersectionExampleScenario.node[18].nic.mac1609_4 	RXTXLostPackets 	0
scalar IntersectionExampleScenario.node[18].nic.mac1609_4 	TotalLostPackets 	0
scalar IntersectionExampleScenario.node[18].nic.mac1609_4 	DroppedPacketsInMac 	0
scalar IntersectionExampleScenario.node[18].nic.mac1609_4 	TooLittleTime 	0
scalar IntersectionExampleScenario.node[18].nic.mac1609_4 	TimesIntoBackoff 	0
scalar IntersectionExampleScenario.node[18].nic.mac1609_4 	SlotsBackoff 	0
scalar IntersectionExampleScenario.node[18].nic.mac1609_4 	NumInternalContention 	0
scalar IntersectionExampleScenario.node[18].nic.mac1609_4 	totalBusyTime 	0
scalar IntersectionExampleScenario.node[18].veinsmobility 	startTime 	100
scalar IntersectionExampleScenario.node[18].veinsmobility 	totalTime 	60.5
scalar IntersectionExampleScenario.node[18].veinsmobility 	stopTime 	160.75
scalar IntersectionExampleScenario.node[18].veinsmobility 	minSpeed 	0
scalar IntersectionExampleScenario.node[18].veinsmobility 	maxSpeed 	15.375
scalar IntersectionExampleScenario.node[18].veinsmobility 	totalDistance 	552.21952819824
scalar IntersectionExampleScenario.node[18].veinsmobility 	totalCO2Emission 	150.16184236752
scalar IntersectionExampleScenario.node[20].appl 	VehicleRemoved 	0
scalar IntersectionExampleScenario.node[20].appl 	ArrivedAtDest 	1
scalar IntersectionExampleScenario.node[20].appl 	IntersectionEnterTime 	107
scalar IntersectionExampleScenario.node[20].appl 	IntersectionExitTime 	143.60319402439
scalar IntersectionExampleScenario.node[20].appl 	NumberOfCollisions 	0
scalar IntersectionExampleScenario.node[20].nic.phy80211p 	busyTime 	0
scalar IntersectionExampleScenario.node[20].nic.mac1609_4 	ReceivedUnicastPackets 	0
scalar IntersectionExampleScenario.node[20].nic.mac1609_4 	ReceivedBroadcasts 	0
scalar IntersectionExampleScenario.node[20].nic.mac1609_4 	SentPackets 	0
scalar IntersectionExampleScenario.node[20].nic.mac1609_4 	SNIRLostPackets 	0
scalar IntersectionExampleScenario.node[20].nic.mac1609_4 	RXTXLostPackets 	0
scalar IntersectionExampleScenario.node[20].nic.mac1609_4 	TotalLostPackets 	0
scalar IntersectionExampleScenario.node[20].nic.mac1609_4 	DroppedPacketsInMac 	0
scalar IntersectionExampleScenario.node[20].nic.mac1609_4 	TooLittleTime 	0
scalar IntersectionExampleScenario.node[20].nic.mac1609_4 	TimesIntoBackoff 	0
scalar IntersectionExampleScenario.node[20].nic.mac1609_4 	SlotsBackoff 	0
scalar IntersectionExampleScenario.node[20].nic.mac1609_4 	NumInternalContention 	0
scalar IntersectionExampleScenario.node[20].nic.mac1609_4 	totalBusyTime 	0
scalar IntersectionExampleScenario.node[20].veinsmobility 	startTime 	107
scalar IntersectionExampleScenario.node[20].veinsmobility 	totalTime 	53.5
scalar IntersectionExampleScenario.node[20].veinsmobility 	stopTime 	160.75
scalar IntersectionExampleScenario.node[20].veinsmobility 	minSpeed 	0
scalar IntersectionExampleScenario.node[20].veinsmobility 	maxSpeed 	15.25
scalar IntersectionExampleScenario.node[20].veinsmobility 	totalDistance 	545.00277615935
scalar IntersectionExampleScenario.node[20].veinsmobility 	totalCO2Emission 	143.32760312217
scalar IntersectionExampleScenario.node[23].appl 	VehicleRemoved 	0
scalar IntersectionExampleScenario.node[23].appl 	ArrivedAtDest 	1
scalar IntersectionExampleScenario.node[23].appl 	IntersectionEnterTime 	119.5
scalar IntersectionExampleScenario.node[23].appl 	IntersectionExitTime 	146.54500724043
scalar IntersectionExampleScenario.node[23].appl 	NumberOfCollisions 	0
scalar IntersectionExampleScenario.node[23].nic.phy80211p 	busyTime 	0
scalar IntersectionExampleScenario.node[23].nic.mac1609_4 	ReceivedUnicastPackets 	0
scalar IntersectionExampleScenario.node[23].nic.mac1609_4 	ReceivedBroadcasts 	0
scalar IntersectionExampleScenario.node[23].nic.mac1609_4 	SentPackets 	0
scalar IntersectionExampleScenario.node[23].nic.mac1609_4 	SNIRLostPackets 	0
scalar IntersectionExampleScenario.node[23].nic.mac1609_4 	RXTXLostPackets 	0
scalar IntersectionExampleScenario.node[23].nic.mac1609_4 	TotalLostPackets 	0
scalar IntersectionExampleScenario.node[23].nic.mac1609_4 	DroppedPacketsInMac 	0
scalar IntersectionExampleScenario.node[23].nic.mac1609_4 	TooLittleTime 	0
scalar IntersectionExampleScenario.node[23].nic.mac1609_4 	TimesIntoBackoff 	0
scalar IntersectionExampleScenario.node[23].nic.mac1609_4 	SlotsBackoff 	0
scalar IntersectionExampleScenario.node[23].nic.mac1609_4 	NumInternalContention 	0
scalar IntersectionExampleScenario.node[23].nic.mac1609_4 	totalBusyTime 	0
scalar IntersectionExampleScenario.node[23].veinsmobility 	startTime 	119.5
scalar IntersectionExampleScenario.node[23].veinsmobility 	totalTime 	43
scalar IntersectionExampleScenario.node[23].veinsmobility 	stopTime 	162.75
scalar IntersectionExampleScenario.node[23].veinsmobility 	minSpeed 	5.1790690422058
scalar IntersectionExampleScenario.node[23].veinsmobility 	maxSpeed 	16
scalar IntersectionExampleScenario.node[23].veinsmobility 	totalDistance 	551.24250601215
scalar IntersectionExampleScenario.node[23].veinsmobility 	totalCO2Emission 	136.79251361332
scalar IntersectionExampleScenario.node[22].appl 	VehicleRemoved 	0
scalar IntersectionExampleScenario.node[22].appl 	ArrivedAtDest 	1
scalar IntersectionExampleScenario.node[22].appl 	IntersectionEnterTime 	118.25
scalar IntersectionExampleScenario.node[22].appl 	IntersectionExitTime 	146.52887534269
scalar IntersectionExampleScenario.node[22].appl 	NumberOfCollisions 	0
scalar IntersectionExampleScenario.node[22].nic.phy80211p 	busyTime 	0
scalar IntersectionExampleScenario.node[22].nic.mac1609_4 	ReceivedUnicastPackets 	0
scalar IntersectionExampleScenario.node[22].nic.mac1609_4 	ReceivedBroadcasts 	0
scalar IntersectionExampleScenario.node[22].nic.mac1609_4 	SentPackets 	0
scalar IntersectionExampleScenario.node[22].nic.mac1609_4 	SNIRLostPackets 	0
scalar IntersectionExampleScenario.node[22].nic.mac1609_4 	RXTXLostPackets 	0
scalar IntersectionExampleScenario.node[22].nic.mac1609_4 	TotalLostPackets 	0
scalar IntersectionExampleScenario.node[22].nic.mac1609_4 	DroppedPacketsInMac 	0
scalar IntersectionExampleScenario.node[22].nic.mac1609_4 	TooLittleTime 	0
scalar IntersectionExampleScenario.node[22].nic.mac1609_4 	TimesIntoBackoff 	0
scalar IntersectionExampleScenario.node[22].nic.mac1609_4 	SlotsBackoff 	0
scalar IntersectionExampleScenario.node[22].nic.mac1609_4 	NumInternalContention 	0
scalar IntersectionExampleScenario.node[22].nic.mac1609_4 	totalBusyTime 	0
scalar IntersectionExampleScenario.node[22].veinsmobility 	startTime 	118.25
scalar IntersectionExampleScenario.node[22].veinsmobility 	totalTime 	44.5
scalar IntersectionExampleScenario.node[22].veinsmobility 	stopTime 	163
scalar IntersectionExampleScenario.node[22].veinsmobility 	minSpeed 	4.4688863754272
scalar IntersectionExampleScenario.node[22].veinsmobility 	maxSpeed 	15.245265960693
scalar IntersectionExampleScenario.node[22].veinsmobility 	totalDistance 	552.9854888916
scalar IntersectionExampleScenario.node[22].veinsmobility 	totalCO2Emission 	130.17817544524
scalar IntersectionExampleScenario.node[24].appl 	VehicleRemoved 	0
scalar IntersectionExampleScenario.node[24].appl 	ArrivedAtDest 	1
scalar IntersectionExampleScenario.node[24].appl 	IntersectionEnterTime 	123.5
scalar IntersectionExampleScenario.node[24].appl 	IntersectionExitTime 	157.36305124563
scalar IntersectionExampleScenario.node[24].appl 	NumberOfCollisions 	0
scalar IntersectionExampleScenario.node[24].nic.phy80211p 	busyTime 	0
scalar IntersectionExampleScenario.node[24].nic.mac1609_4 	ReceivedUnicastPackets 	0
scalar IntersectionExampleScenario.node[24].nic.mac1609_4 	ReceivedBroadcasts 	0
scalar IntersectionExampleScenario.node[24].nic.mac1609_4 	SentPackets 	0
scalar IntersectionExampleScenario.node[24].nic.mac1609_4 	SNIRLostPackets 	0
scalar IntersectionExampleScenario.node[24].nic.mac1609_4 	RXTXLostPackets 	0
scalar IntersectionExampleScenario.node[24].nic.mac1609_4 	TotalLostPackets 	0
scalar IntersectionExampleScenario.node[24].nic.mac1609_4 	DroppedPacketsInMac 	0
scalar IntersectionExampleScenario.node[24].nic.mac1609_4 	TooLittleTime 	0
scalar IntersectionExampleScenario.node[24].nic.mac1609_4 	TimesIntoBackoff 	0
scalar IntersectionExampleScenario.node[24].nic.mac1609_4 	SlotsBackoff 	0
scalar IntersectionExampleScenario.node[24].nic.mac1609_4 	NumInternalContention 	0
scalar IntersectionExampleScenario.node[24].nic.mac1609_4 	totalBusyTime 	0
scalar IntersectionExampleScenario.node[24].veinsmobility 	startTime 	123.5
scalar IntersectionExampleScenario.node[24].veinsmobility 	totalTime 	49.75
scalar IntersectionExampleScenario.node[24].veinsmobility 	stopTime 	173.5
scalar IntersectionExampleScenario.node[24].veinsmobility 	minSpeed 	0
scalar IntersectionExampleScenario.node[24].veinsmobility 	maxSpeed 	15.64999961853
scalar IntersectionExampleScenario.node[24].veinsmobility 	totalDistance 	553.61808013916
scalar IntersectionExampleScenario.node[24].veinsmobility 	totalCO2Emission 	142.70356828446
scalar IntersectionExampleScenario.node[27].appl 	VehicleRemoved 	0
scalar IntersectionExampleScenario.node[27].appl 	ArrivedAtDest 	1
scalar IntersectionExampleScenario.node[27].appl 	IntersectionEnterTime 	143.75
scalar IntersectionExampleScenario.node[27].appl 	IntersectionExitTime 	166.53849291839
scalar IntersectionExampleScenario.node[27].appl 	NumberOfCollisions 	0
scalar IntersectionExampleScenario.node[27].nic.phy80211p 	busyTime 	0
scalar IntersectionExampleScenario.node[27].nic.mac1609_4 	ReceivedUnicastPackets 	0
scalar IntersectionExampleScenario.node[27].nic.mac1609_4 	ReceivedBroadcasts 	0
scalar IntersectionExampleScenario.node[27].nic.mac1609_4 	SentPackets 	0
scalar IntersectionExampleScenario.node[27].nic.mac1609_4 	SNIRLostPackets 	0
scalar IntersectionExampleScenario.node[27].nic.mac1609_4 	RXTXLostPackets 	0
scalar IntersectionExampleScenario.node[27].nic.mac1609_4 	TotalLostPackets 	0
scalar IntersectionExampleScenario.node[27].nic.mac1609_4 	DroppedPacketsInMac 	0
scalar IntersectionExampleScenario.node[27].nic.mac1609_4 	TooLittleTime 	0
scalar IntersectionExampleScenario.node[27].nic.mac1609_4 	TimesIntoBackoff 	0
scalar IntersectionExampleScenario.node[27].nic.mac1609_4 	SlotsBackoff 	0
scalar IntersectionExampleScenario.node[27].nic.mac1609_4 	NumInternalContention 	0
scalar IntersectionExampleScenario.node[27].nic.mac1609_4 	totalBusyTime 	0
scalar IntersectionExampleScenario.node[27].veinsmobility 	startTime 	143.75
scalar IntersectionExampleScenario.node[27].veinsmobility 	totalTime 	38.75
scalar IntersectionExampleScenario.node[27].veinsmobility 	stopTime 	182.75
scalar IntersectionExampleScenario.node[27].veinsmobility 	minSpeed 	5.6500000953674
scalar IntersectionExampleScenario.node[27].veinsmobility 	maxSpeed 	15.64999961853
scalar IntersectionExampleScenario.node[27].veinsmobility 	totalDistance 	553.98722076416
scalar IntersectionExampleScenario.node[27].veinsmobility 	totalCO2Emission 	118.09265819258
scalar IntersectionExampleScenario.node[31].appl 	VehicleRemoved 	0
scalar IntersectionExampleScenario.node[31].appl 	ArrivedAtDest 	1
scalar IntersectionExampleScenario.node[31].appl 	IntersectionEnterTime 	146.75
scalar IntersectionExampleScenario.node[31].appl 	IntersectionExitTime 	168.02030948593
scalar IntersectionExampleScenario.node[31].appl 	NumberOfCollisions 	0
scalar IntersectionExampleScenario.node[31].nic.phy80211p 	busyTime 	0
scalar IntersectionExampleScenario.node[31].nic.mac1609_4 	ReceivedUnicastPackets 	0
scalar IntersectionExampleScenario.node[31].nic.mac1609_4 	ReceivedBroadcasts 	0
scalar IntersectionExampleScenario.node[31].nic.mac1609_4 	SentPackets 	0
scalar IntersectionExampleScenario.node[31].nic.mac1609_4 	SNIRLostPackets 	0
scalar IntersectionExampleScenario.node[31].nic.mac1609_4 	RXTXLostPackets 	0
scalar IntersectionExampleScenario.node[31].nic.mac1609_4 	TotalLostPackets 	0
scalar IntersectionExampleScenario.node[31].nic.mac1609_4 	DroppedPacketsInMac 	0
scalar IntersectionExampleScenario.node[31].nic.mac1609_4 	TooLittleTime 	0
scalar IntersectionExampleScenario.node[31].nic.mac1609_4 	TimesIntoBackoff 	0
scalar IntersectionExampleScenario.node[31].nic.mac1609_4 	SlotsBackoff 	0
scalar IntersectionExampleScenario.node[31].nic.mac1609_4 	NumInternalContention 	0
scalar IntersectionExampleScenario.node[31].nic.mac1609_4 	totalBusyTime 	0
scalar IntersectionExampleScenario.node[31].veinsmobility 	startTime 	146.75
scalar IntersectionExampleScenario.node[31].veinsmobility 	totalTime 	37
scalar IntersectionExampleScenario.node[31].veinsmobility 	stopTime 	184
scalar IntersectionExampleScenario.node[31].veinsmobility 	minSpeed 	5.6500000953674
scalar IntersectionExampleScenario.node[31].veinsmobility 	maxSpeed 	16.27499961853
scalar IntersectionExampleScenario.node[31].veinsmobility 	totalDistance 	520.67012234606
scalar IntersectionExampleScenario.node[31].veinsmobility 	totalCO2Emission 	126.0624092203
scalar IntersectionExampleScenario.node[29].appl 	VehicleRemoved 	0
scalar IntersectionExampleScenario.node[29].appl 	ArrivedAtDest 	1
scalar IntersectionExampleScenario.node[29].appl 	IntersectionEnterTime 	145.25
scalar IntersectionExampleScenario.node[29].appl 	IntersectionExitTime 	170.12326248791
scalar IntersectionExampleScenario.node[29].appl 	NumberOfCollisions 	0
scalar IntersectionExampleScenario.node[29].nic.phy80211p 	busyTime 	0
scalar IntersectionExampleScenario.node[29].nic.mac1609_4 	ReceivedUnicastPackets 	0
scalar IntersectionExampleScenario.node[29].nic.mac1609_4 	ReceivedBroadcasts 	0
scalar IntersectionExampleScenario.node[29].nic.mac1609_4 	SentPackets 	0
scalar IntersectionExampleScenario.node[29].nic.mac1609_4 	SNIRLostPackets 	0
scalar IntersectionExampleScenario.node[29].nic.mac1609_4 	RXTXLostPackets 	0
scalar IntersectionExampleScenario.node[29].nic.mac1609_4 	TotalLostPackets 	0
scalar IntersectionExampleScenario.node[29].nic.mac1609_4 	DroppedPacketsInMac 	0
scalar IntersectionExampleScenario.node[29].nic.mac1609_4 	TooLittleTime 	0
scalar IntersectionExampleScenario.node[29].nic.mac1609_4 	TimesIntoBackoff 	0
scalar IntersectionExampleScenario.node[29].nic.mac1609_4 	SlotsBackoff 	0
scalar IntersectionExampleScenario.node[29].nic.mac1609_4 	NumInternalContention 	0
scalar IntersectionExampleScenario.node[29].nic.mac1609_4 	totalBusyTime 	0
scalar IntersectionExampleScenario.node[29].veinsmobility 	startTime 	145.25
scalar IntersectionExampleScenario.node[29].veinsmobility 	totalTime 	40.75
scalar IntersectionExampleScenario.node[29].veinsmobility 	stopTime 	186.25
scalar IntersectionExampleScenario.node[29].veinsmobility 	minSpeed 	5.6500000953674
scalar IntersectionExampleScenario.node[29].veinsmobility 	maxSpeed 	16
scalar IntersectionExampleScenario.node[29].veinsmobility 	totalDistance 	549.64321151912
scalar IntersectionExampleScenario.node[29].veinsmobility 	totalCO2Emission 	127.64528626507
scalar IntersectionExampleScenario.node[30].appl 	VehicleRemoved 	0
scalar IntersectionExampleScenario.node[30].appl 	ArrivedAtDest 	1
scalar IntersectionExampleScenario.node[30].appl 	IntersectionEnterTime 	146.25
scalar IntersectionExampleScenario.node[30].appl 	IntersectionExitTime 	172.85258140607
scalar IntersectionExampleScenario.node[30].appl 	NumberOfCollisions 	0
scalar IntersectionExampleScenario.node[30].nic.phy80211p 	busyTime 	0
scalar IntersectionExampleScenario.node[30].nic.mac1609_4 	ReceivedUnicastPackets 	0
scalar IntersectionExampleScenario.node[30].nic.mac1609_4 	ReceivedBroadcasts 	0
scalar IntersectionExampleScenario.node[30].nic.mac1609_4 	SentPackets 	0
scalar IntersectionExampleScenario.node[30].nic.mac1609_4 	SNIRLostPackets 	0
scalar IntersectionExampleScenario.node[30].nic.mac1609_4 	RXTXLostPackets 	0
scalar IntersectionExampleScenario.node[30].nic.mac1609_4 	TotalLostPackets 	0
scalar IntersectionExampleScenario.node[30].nic.mac1609_4 	DroppedPacketsInMac 	0
scalar IntersectionExampleScenario.node[30].nic.mac1609_4 	TooLittleTime 	0
scalar IntersectionExampleScenario.node[30].nic.mac1609_4 	TimesIntoBackoff 	0
scalar IntersectionExampleScenario.node[30].nic.mac1609_4 	SlotsBackoff 	0
scalar IntersectionExampleScenario.node[30].nic.mac1609_4 	NumInternalContention 	0
scalar IntersectionExampleScenario.node[30].nic.mac1609_4 	totalBusyTime 	0
scalar IntersectionExampleScenario.node[30].veinsmobility 	startTime 	146.25
scalar IntersectionExampleScenario.node[30].veinsmobility 	totalTime 	43.5
scalar IntersectionExampleScenario.node[30].veinsmobility 	stopTime 	190
scalar IntersectionExampleScenario.node[30].veinsmobility 	minSpeed 	5.6500000953674
scalar IntersectionExampleScenario.node[30].veinsmobility 	maxSpeed 	15.252880096436
scalar IntersectionExampleScenario.node[30].veinsmobility 	totalDistance 	568.65579749068
scalar IntersectionExampleScenario.node[30].veinsmobility 	totalCO2Emission 	129.05066505213
scalar IntersectionExampleScenario.node[25].appl 	VehicleRemoved 	0
scalar IntersectionExampleScenario.node[25].appl 	ArrivedAtDest 	1
scalar IntersectionExampleScenario.node[25].appl 	IntersectionEnterTime 	141
scalar IntersectionExampleScenario.node[25].appl 	IntersectionExitTime 	178.61335841278
scalar IntersectionExampleScenario.node[25].appl 	NumberOfCollisions 	0
scalar IntersectionExampleScenario.node[25].nic.phy80211p 	busyTime 	0
scalar IntersectionExampleScenario.node[25].nic.mac1609_4 	ReceivedUnicastPackets 	0
scalar IntersectionExampleScenario.node[25].nic.mac1609_4 	ReceivedBroadcasts 	0
scalar IntersectionExampleScenario.node[25].nic.mac1609_4 	SentPackets 	0
scalar IntersectionExampleScenario.node[25].nic.mac1609_4 	SNIRLostPackets 	0
scalar IntersectionExampleScenario.node[25].nic.mac1609_4 	RXTXLostPackets 	0
scalar IntersectionExampleScenario.node[25].nic.mac1609_4 	TotalLostPackets 	0
scalar IntersectionExampleScenario.node[25].nic.mac1609_4 	DroppedPacketsInMac 	0
scalar IntersectionExampleScenario.node[25].nic.mac1609_4 	TooLittleTime 	0
scalar IntersectionExampleScenario.node[25].nic.mac1609_4 	TimesIntoBackoff 	0
scalar IntersectionExampleScenario.node[25].nic.mac1609_4 	SlotsBackoff 	0
scalar IntersectionExampleScenario.node[25].nic.mac1609_4 	NumInternalContention 	0
scalar IntersectionExampleScenario.node[25].nic.mac1609_4 	totalBusyTime 	0
scalar IntersectionExampleScenario.node[25].veinsmobility 	startTime 	141
scalar IntersectionExampleScenario.node[25].veinsmobility 	totalTime 	54.5
scalar IntersectionExampleScenario.node[25].veinsmobility 	stopTime 	195.75
scalar IntersectionExampleScenario.node[25].veinsmobility 	minSpeed 	0
scalar IntersectionExampleScenario.node[25].veinsmobility 	maxSpeed 	15.25
scalar IntersectionExampleScenario.node[25].veinsmobility 	totalDistance 	544.46385861785
scalar IntersectionExampleScenario.node[25].veinsmobility 	totalCO2Emission 	143.83724564102
scalar IntersectionExampleScenario.node[26].appl 	VehicleRemoved 	0
scalar IntersectionExampleScenario.node[26].appl 	ArrivedAtDest 	1
scalar IntersectionExampleScenario.node[26].appl 	IntersectionEnterTime 	141.25
scalar IntersectionExampleScenario.node[26].appl 	IntersectionExitTime 	180.29168741571
scalar IntersectionExampleScenario.node[26].appl 	NumberOfCollisions 	0
scalar IntersectionExampleScenario.node[26].nic.phy80211p 	busyTime 	0
scalar IntersectionExampleScenario.node[26].nic.mac1609_4 	ReceivedUnicastPackets 	0
scalar IntersectionExampleScenario.node[26].nic.mac1609_4 	ReceivedBroadcasts 	0
scalar IntersectionExampleScenario.node[26].nic.mac1609_4 	SentPackets 	0
scalar IntersectionExampleScenario.node[26].nic.mac1609_4 	SNIRLostPackets 	0
scalar IntersectionExampleScenario.node[26].nic.mac1609_4 	RXTXLostPackets 	0
scalar IntersectionExampleScenario.node[26].nic.mac1609_4 	TotalLostPackets 	0
scalar IntersectionExampleScenario.node[26].nic.mac1609_4 	DroppedPacketsInMac 	0
scalar IntersectionExampleScenario.node[26].nic.mac1609_4 	TooLittleTime 	0
scalar IntersectionExampleScenario.node[26].nic.mac1609_4 	TimesIntoBackoff 	0
scalar IntersectionExampleScenario.node[26].nic.mac1609_4 	SlotsBackoff 	0
scalar IntersectionExampleScenario.node[26].nic.mac1609_4 	NumInternalContention 	0
scalar IntersectionExampleScenario.node[26].nic.mac1609_4 	totalBusyTime 	0
scalar IntersectionExampleScenario.node[26].veinsmobility 	startTime 	141.25
scalar IntersectionExampleScenario.node[26].veinsmobility 	totalTime 	55.25
scalar IntersectionExampleScenario.node[26].veinsmobility 	stopTime 	196.75
scalar IntersectionExampleScenario.node[26].veinsmobility 	minSpeed 	0
scalar IntersectionExampleScenario.node[26].veinsmobility 	maxSpeed 	15.398722648621
scalar IntersectionExampleScenario.node[26].veinsmobility 	totalDistance 	573.56252433714
scalar IntersectionExampleScenario.node[26].veinsmobility 	totalCO2Emission 	148.59043765255
scalar IntersectionExampleScenario.node[32].appl 	VehicleRemoved 	0
scalar IntersectionExampleScenario.node[32].appl 	ArrivedAtDest 	1
scalar IntersectionExampleScenario.node[32].appl 	IntersectionEnterTime 	149.75
scalar IntersectionExampleScenario.node[32].appl 	IntersectionExitTime 	182.58611170627
scalar IntersectionExampleScenario.node[32].appl 	NumberOfCollisions 	0
scalar IntersectionExampleScenario.node[32].nic.phy80211p 	busyTime 	0
scalar IntersectionExampleScenario.node[32].nic.mac1609_4 	ReceivedUnicastPackets 	0
scalar IntersectionExampleScenario.node[32].nic.mac1609_4 	ReceivedBroadcasts 	0
scalar IntersectionExampleScenario.node[32].nic.mac1609_4 	SentPackets 	0
scalar IntersectionExampleScenario.node[32].nic.mac1609_4 	SNIRLostPackets 	0
scalar IntersectionExampleScenario.node[32].nic.mac1609_4 	RXTXLostPackets 	0
scalar IntersectionExampleScenario.node[32].nic.mac1609_4 	TotalLostPackets 	0
scalar IntersectionExampleScenario.node[32].nic.mac1609_4 	DroppedPacketsInMac 	0
scalar IntersectionExampleScenario.node[32].nic.mac1609_4 	TooLittleTime 	0
scalar IntersectionExampleScenario.node[32].nic.mac1609_4 	TimesIntoBackoff 	0
scalar IntersectionExampleScenario.node[32].nic.mac1609_4 	SlotsBackoff 	0
scalar IntersectionExampleScenario.node[32].nic.mac1609_4 	NumInternalContention 	0
scalar IntersectionExampleScenario.node[32].nic.mac1609_4 	totalBusyTime 	0
scalar IntersectionExampleScenario.node[32].veinsmobility 	startTime 	149.75
scalar IntersectionExampleScenario.node[32].veinsmobility 	totalTime 	49.25
scalar IntersectionExampleScenario.node[32].veinsmobility 	stopTime 	199.25
scalar IntersectionExampleScenario.node[32].veinsmobility 	minSpeed 	2.0425636768341
scalar IntersectionExampleScenario.node[32].veinsmobility 	maxSpeed 	15.262068748474
scalar IntersectionExampleScenario.node[32].veinsmobility 	totalDistance 	549.58694200423
scalar IntersectionExampleScenario.node[32].veinsmobility 	totalCO2Emission 	134.24145286829
scalar IntersectionExampleScenario.node[34].appl 	VehicleRemoved 	0
scalar IntersectionExampleScenario.node[34].appl 	ArrivedAtDest 	1
scalar IntersectionExampleScenario.node[34].appl 	IntersectionEnterTime 	157.75
scalar IntersectionExampleScenario.node[34].appl 	IntersectionExitTime 	184.82645608345
scalar IntersectionExampleScenario.node[34].appl 	NumberOfCollisions 	0
scalar IntersectionExampleScenario.node[34].nic.phy80211p 	busyTime 	0
scalar IntersectionExampleScenario.node[34].nic.mac1609_4 	ReceivedUnicastPackets 	0
scalar IntersectionExampleScenario.node[34].nic.mac1609_4 	ReceivedBroadcasts 	0
scalar IntersectionExampleScenario.node[34].nic.mac1609_4 	SentPackets 	0
scalar IntersectionExampleScenario.node[34].nic.mac1609_4 	SNIRLostPackets 	0
scalar IntersectionExampleScenario.node[34].nic.mac1609_4 	RXTXLostPackets 	0
scalar IntersectionExampleScenario.node[34].nic.mac1609_4 	TotalLostPackets 	0
scalar IntersectionExampleScenario.node[34].nic.mac1609_4 	DroppedPacketsInMac 	0
scalar IntersectionExampleScenario.node[34].nic.mac1609_4 	TooLittleTime 	0
scalar IntersectionExampleScenario.node[34].nic.mac1609_4 	TimesIntoBackoff 	0
scalar IntersectionExampleScenario.node[34].nic.mac1609_4 	SlotsBackoff 	0
scalar IntersectionExampleScenario.node[34].nic.mac1609_4 	NumInternalContention 	0
scalar IntersectionExampleScenario.node[34].nic.mac1609_4 	totalBusyTime 	0
scalar IntersectionExampleScenario.node[34].veinsmobility 	startTime 	157.75
scalar IntersectionExampleScenario.node[34].veinsmobility 	totalTime 	42.75
scalar IntersectionExampleScenario.node[34].veinsmobility 	stopTime 	200.75
scalar IntersectionExampleScenario.node[34].veinsmobility 	minSpeed 	5.6500000953674
scalar IntersectionExampleScenario.node[34].veinsmobility 	maxSpeed 	16.662275314331
scalar IntersectionExampleScenario.node[34].veinsmobility 	totalDistance 	543.90212634011
scalar IntersectionExampleScenario.node[34].veinsmobility 	totalCO2Emission 	147.25242122649
scalar IntersectionExampleScenario.node[28].appl 	VehicleRemoved 	0
scalar IntersectionExampleScenario.node[28].appl 	ArrivedAtDest 	1
scalar IntersectionExampleScenario.node[28].appl 	IntersectionEnterTime 	144.25
scalar IntersectionExampleScenario.node[28].appl 	IntersectionExitTime 	191.61349833847
scalar IntersectionExampleScenario.node[28].appl 	NumberOfCollisions 	0
scalar IntersectionExampleScenario.node[28].nic.phy80211p 	busyTime 	0
scalar IntersectionExampleScenario.node[28].nic.mac1609_4 	ReceivedUnicastPackets 	0
scalar IntersectionExampleScenario.node[28].nic.mac1609_4 	ReceivedBroadcasts 	0
scalar IntersectionExampleScenario.node[28].nic.mac1609_4 	SentPackets 	0
scalar IntersectionExampleScenario.node[28].nic.mac1609_4 	SNIRLostPackets 	0
scalar IntersectionExampleScenario.node[28].nic.mac1609_4 	RXTXLostPackets 	0
scalar IntersectionExampleScenario.node[28].nic.mac1609_4 	TotalLostPackets 	0
scalar IntersectionExampleScenario.node[28].nic.mac1609_4 	DroppedPacketsInMac 	0
scalar IntersectionExampleScenario.node[28].nic.mac1609_4 	TooLittleTime 	0
scalar IntersectionExampleScenario.node[28].nic.mac1609_4 	TimesIntoBackoff 	0
scalar IntersectionExampleScenario.node[28].nic.mac1609_4 	SlotsBackoff 	0
scalar IntersectionExampleScenario.node[28].nic.mac1609_4 	NumInternalContention 	0
scalar IntersectionExampleScenario.node[28].nic.mac1609_4 	totalBusyTime 	0
scalar IntersectionExampleScenario.node[28].veinsmobility 	startTime 	144.25
scalar IntersectionExampleScenario.node[28].veinsmobility 	totalTime 	64.25
scalar IntersectionExampleScenario.node[28].veinsmobility 	stopTime 	208.75
scalar IntersectionExampleScenario.node[28].veinsmobility 	minSpeed 	0
scalar IntersectionExampleScenario.node[28].veinsmobility 	maxSpeed 	15.417946815491
scalar IntersectionExampleScenario.node[28].veinsmobility 	totalDistance 	567.12969113738
scalar IntersectionExampleScenario.node[28].veinsmobility 	totalCO2Emission 	157.16780212757
scalar IntersectionExampleScenario.node[33].appl 	VehicleRemoved 	0
scalar IntersectionExampleScenario.node[33].appl 	ArrivedAtDest 	1
scalar IntersectionExampleScenario.node[33].appl 	IntersectionEnterTime 	155.75
scalar IntersectionExampleScenario.node[33].appl 	IntersectionExitTime 	193.35604531458
scalar IntersectionExampleScenario.node[33].appl 	NumberOfCollisions 	0
scalar IntersectionExampleScenario.node[33].nic.phy80211p 	busyTime 	0
scalar IntersectionExampleScenario.node[33].nic.mac1609_4 	ReceivedUnicastPackets 	0
scalar IntersectionExampleScenario.node[33].nic.mac1609_4 	ReceivedBroadcasts 	0
scalar IntersectionExampleScenario.node[33].nic.mac1609_4 	SentPackets 	0
scalar IntersectionExampleScenario.node[33].nic.mac1609_4 	SNIRLostPackets 	0
scalar IntersectionExampleScenario.node[33].nic.mac1609_4 	RXTXLostPackets 	0
scalar IntersectionExampleScenario.node[33].nic.mac1609_4 	TotalLostPackets 	0
scalar IntersectionExampleScenario.node[33].nic.mac1609_4 	DroppedPacketsInMac 	0
scalar IntersectionExampleScenario.node[33].nic.mac1609_4 	TooLittleTime 	0
scalar IntersectionExampleScenario.node[33].nic.mac1609_4 	TimesIntoBackoff 	0
scalar IntersectionExampleScenario.node[33].nic.mac1609_4 	SlotsBackoff 	0
scalar IntersectionExampleScenario.node[33].nic.mac1609_4 	NumInternalContention 	0
scalar IntersectionExampleScenario.node[33].nic.mac1609_4 	totalBusyTime 	0
scalar IntersectionExampleScenario.node[33].veinsmobility 	startTime 	155.75
scalar IntersectionExampleScenario.node[33].veinsmobility 	totalTime 	54
scalar IntersectionExampleScenario.node[33].veinsmobility 	stopTime 	210
scalar IntersectionExampleScenario.node[33].veinsmobility 	minSpeed 	0
scalar IntersectionExampleScenario.node[33].veinsmobility 	maxSpeed 	15.375
scalar IntersectionExampleScenario.node[33].veinsmobility 	totalDistance 	548.56767392373
scalar IntersectionExampleScenario.node[33].veinsmobility 	totalCO2Emission 	140.43499287122
scalar IntersectionExampleScenario.node[35].appl 	VehicleRemoved 	0
scalar IntersectionExampleScenario.node[35].appl 	ArrivedAtDest 	1
scalar IntersectionExampleScenario.node[35].appl 	IntersectionEnterTime 	170
scalar IntersectionExampleScenario.node[35].appl 	IntersectionExitTime 	213.52573169212
scalar IntersectionExampleScenario.node[35].appl 	NumberOfCollisions 	0
scalar IntersectionExampleScenario.node[35].nic.phy80211p 	busyTime 	0
scalar IntersectionExampleScenario.node[35].nic.mac1609_4 	ReceivedUnicastPackets 	0
scalar IntersectionExampleScenario.node[35].nic.mac1609_4 	ReceivedBroadcasts 	0
scalar IntersectionExampleScenario.node[35].nic.mac1609_4 	SentPackets 	0
scalar IntersectionExampleScenario.node[35].nic.mac1609_4 	SNIRLostPackets 	0
scalar IntersectionExampleScenario.node[35].nic.mac1609_4 	RXTXLostPackets 	0
scalar IntersectionExampleScenario.node[35].nic.mac1609_4 	TotalLostPackets 	0
scalar IntersectionExampleScenario.node[35].nic.mac1609_4 	DroppedPacketsInMac 	0
scalar IntersectionExampleScenario.node[35].nic.mac1609_4 	TooLittleTime 	0
scalar IntersectionExampleScenario.node[35].nic.mac1609_4 	TimesIntoBackoff 	0
scalar IntersectionExampleScenario.node[35].nic.mac1609_4 	SlotsBackoff 	0
scalar IntersectionExampleScenario.node[35].nic.mac1609_4 	NumInternalContention 	0
scalar IntersectionExampleScenario.node[35].nic.mac1609_4 	totalBusyTime 	0
scalar IntersectionExampleScenario.node[35].veinsmobility 	startTime 	170
scalar IntersectionExampleScenario.node[35].veinsmobility 	totalTime 	59.5
scalar IntersectionExampleScenario.node[35].veinsmobility 	stopTime 	229.75
scalar IntersectionExampleScenario.node[35].veinsmobility 	minSpeed 	0
scalar IntersectionExampleScenario.node[35].veinsmobility 	maxSpeed 	16.5
scalar IntersectionExampleScenario.node[35].veinsmobility 	totalDistance 	543.52646542937
scalar IntersectionExampleScenario.node[35].veinsmobility 	totalCO2Emission 	158.5232229743
scalar IntersectionExampleScenario.node[37].appl 	VehicleRemoved 	0
scalar IntersectionExampleScenario.node[37].appl 	ArrivedAtDest 	1
scalar IntersectionExampleScenario.node[37].appl 	IntersectionEnterTime 	180.25
scalar IntersectionExampleScenario.node[37].appl 	IntersectionExitTime 	215.55881219351
scalar IntersectionExampleScenario.node[37].appl 	NumberOfCollisions 	0
scalar IntersectionExampleScenario.node[37].nic.phy80211p 	busyTime 	0
scalar IntersectionExampleScenario.node[37].nic.mac1609_4 	ReceivedUnicastPackets 	0
scalar IntersectionExampleScenario.node[37].nic.mac1609_4 	ReceivedBroadcasts 	0
scalar IntersectionExampleScenario.node[37].nic.mac1609_4 	SentPackets 	0
scalar IntersectionExampleScenario.node[37].nic.mac1609_4 	SNIRLostPackets 	0
scalar IntersectionExampleScenario.node[37].nic.mac1609_4 	RXTXLostPackets 	0
scalar IntersectionExampleScenario.node[37].nic.mac1609_4 	TotalLostPackets 	0
scalar IntersectionExampleScenario.node[37].nic.mac1609_4 	DroppedPacketsInMac 	0
scalar IntersectionExampleScenario.node[37].nic.mac1609_4 	TooLittleTime 	0
scalar IntersectionExampleScenario.node[37].nic.mac1609_4 	TimesIntoBackoff 	0
scalar IntersectionExampleScenario.node[37].nic.mac1609_4 	SlotsBackoff 	0
scalar IntersectionExampleScenario.node[37].nic.mac1609_4 	NumInternalContention 	0
scalar IntersectionExampleScenario.node[37].nic.mac1609_4 	totalBusyTime 	0
scalar IntersectionExampleScenario.node[37].veinsmobility 	startTime 	180.25
scalar IntersectionExampleScenario.node[37].veinsmobility 	totalTime 	51
scalar IntersectionExampleScenario.node[37].veinsmobility 	stopTime 	231.5
scalar IntersectionExampleScenario.node[37].veinsmobility 	minSpeed 	0
scalar IntersectionExampleScenario.node[37].veinsmobility 	maxSpeed 	16.375417709351
scalar IntersectionExampleScenario.node[37].veinsmobility 	totalDistance 	551.57887251873
scalar IntersectionExampleScenario.node[37].veinsmobility 	totalCO2Emission 	150.1756906071
scalar IntersectionExampleScenario.node[42].appl 	VehicleRemoved 	0
scalar IntersectionExampleScenario.node[42].appl 	ArrivedAtDest 	1
scalar IntersectionExampleScenario.node[42].appl 	IntersectionEnterTime 	189.75
scalar IntersectionExampleScenario.node[42].appl 	IntersectionExitTime 	216.52387472766
scalar IntersectionExampleScenario.node[42].appl 	NumberOfCollisions 	0
scalar IntersectionExampleScenario.node[42].nic.phy80211p 	busyTime 	0
scalar IntersectionExampleScenario.node[42].nic.mac1609_4 	ReceivedUnicastPackets 	0
scalar IntersectionExampleScenario.node[42].nic.mac1609_4 	ReceivedBroadcasts 	0
scalar IntersectionExampleScenario.node[42].nic.mac1609_4 	SentPackets 	0
scalar IntersectionExampleScenario.node[42].nic.mac1609_4 	SNIRLostPackets 	0
scalar IntersectionExampleScenario.node[42].nic.mac1609_4 	RXTXLostPackets 	0
scalar IntersectionExampleScenario.node[42].nic.mac1609_4 	TotalLostPackets 	0
scalar IntersectionExampleScenario.node[42].nic.mac1609_4 	DroppedPacketsInMac 	0
scalar IntersectionExampleScenario.node[42].nic.mac1609_4 	TooLittleTime 	0
scalar IntersectionExampleScenario.node[42].nic.mac1609_4 	TimesIntoBackoff 	0
scalar IntersectionExampleScenario.node[42].nic.mac1609_4 	SlotsBackoff 	0
scalar IntersectionExampleScenario.node[42].nic.mac1609_4 	NumInternalContention 	0
scalar IntersectionExampleScenario.node[42].nic.mac1609_4 	totalBusyTime 	0
scalar IntersectionExampleScenario.node[42].veinsmobility 	startTime 	189.75
scalar IntersectionExampleScenario.node[42].veinsmobility 	totalTime 	42.5
scalar IntersectionExampleScenario.node[42].veinsmobility 	stopTime 	232.5
scalar IntersectionExampleScenario.node[42].veinsmobility 	minSpeed 	5.1783761978149
scalar IntersectionExampleScenario.node[42].veinsmobility 	maxSpeed 	16.27499961853
scalar IntersectionExampleScenario.node[42].veinsmobility 	totalDistance 	552.27653487748
scalar IntersectionExampleScenario.node[42].veinsmobility 	totalCO2Emission 	139.6475787578
scalar IntersectionExampleScenario.node[40].appl 	VehicleRemoved 	0
scalar IntersectionExampleScenario.node[40].appl 	ArrivedAtDest 	1
scalar IntersectionExampleScenario.node[40].appl 	IntersectionEnterTime 	185.25
scalar IntersectionExampleScenario.node[40].appl 	IntersectionExitTime 	218.09933402433
scalar IntersectionExampleScenario.node[40].appl 	NumberOfCollisions 	0
scalar IntersectionExampleScenario.node[40].nic.phy80211p 	busyTime 	0
scalar IntersectionExampleScenario.node[40].nic.mac1609_4 	ReceivedUnicastPackets 	0
scalar IntersectionExampleScenario.node[40].nic.mac1609_4 	ReceivedBroadcasts 	0
scalar IntersectionExampleScenario.node[40].nic.mac1609_4 	SentPackets 	0
scalar IntersectionExampleScenario.node[40].nic.mac1609_4 	SNIRLostPackets 	0
scalar IntersectionExampleScenario.node[40].nic.mac1609_4 	RXTXLostPackets 	0
scalar IntersectionExampleScenario.node[40].nic.mac1609_4 	TotalLostPackets 	0
scalar IntersectionExampleScenario.node[40].nic.mac1609_4 	DroppedPacketsInMac 	0
scalar IntersectionExampleScenario.node[40].nic.mac1609_4 	TooLittleTime 	0
scalar IntersectionExampleScenario.node[40].nic.mac1609_4 	TimesIntoBackoff 	0
scalar IntersectionExampleScenario.node[40].nic.mac1609_4 	SlotsBackoff 	0
scalar IntersectionExampleScenario.node[40].nic.mac1609_4 	NumInternalContention 	0
scalar IntersectionExampleScenario.node[40].nic.mac1609_4 	totalBusyTime 	0
scalar IntersectionExampleScenario.node[40].veinsmobility 	startTime 	185.25
scalar IntersectionExampleScenario.node[40].veinsmobility 	totalTime 	49
scalar IntersectionExampleScenario.node[40].veinsmobility 	stopTime 	234.5
scalar IntersectionExampleScenario.node[40].veinsmobility 	minSpeed 	0
scalar IntersectionExampleScenario.node[40].veinsmobility 	maxSpeed 	15.64999961853
scalar IntersectionExampleScenario.node[40].veinsmobility 	totalDistance 	519.77196838002
scalar IntersectionExampleScenario.node[40].veinsmobility 	totalCO2Emission 	138.07630588651
scalar IntersectionExampleScenario.node[38].appl 	VehicleRemoved 	0
scalar IntersectionExampleScenario.node[38].appl 	ArrivedAtDest 	1
scalar IntersectionExampleScenario.node[38].appl 	IntersectionEnterTime 	181.75
scalar IntersectionExampleScenario.node[38].appl 	IntersectionExitTime 	219.50468895226
scalar IntersectionExampleScenario.node[38].appl 	NumberOfCollisions 	0
scalar IntersectionExampleScenario.node[38].nic.phy80211p 	busyTime 	0
scalar IntersectionExampleScenario.node[38].nic.mac1609_4 	ReceivedUnicastPackets 	0
scalar IntersectionExampleScenario.node[38].nic.mac1609_4 	ReceivedBroadcasts 	0
scalar IntersectionExampleScenario.node[38].nic.mac1609_4 	SentPackets 	0
scalar IntersectionExampleScenario.node[38].nic.mac1609_4 	SNIRLostPackets 	0
scalar IntersectionExampleScenario.node[38].nic.mac1609_4 	RXTXLostPackets 	0
scalar IntersectionExampleScenario.node[38].nic.mac1609_4 	TotalLostPackets 	0
scalar IntersectionExampleScenario.node[38].nic.mac1609_4 	DroppedPacketsInMac 	0
scalar IntersectionExampleScenario.node[38].nic.mac1609_4 	TooLittleTime 	0
scalar IntersectionExampleScenario.node[38].nic.mac1609_4 	TimesIntoBackoff 	0
[...]
scalar IntersectionExampleScenario.node[466].veinsmobility 	totalCO2Emission 	111.03570080762
scalar IntersectionExampleScenario.node[467].appl 	VehicleRemoved 	0
scalar IntersectionExampleScenario.node[467].appl 	ArrivedAtDest 	0
scalar IntersectionExampleScenario.node[467].appl 	IntersectionEnterTime 	1763.75
scalar IntersectionExampleScenario.node[467].appl 	IntersectionExitTime 	1790.3384887828
scalar IntersectionExampleScenario.node[467].appl 	NumberOfCollisions 	0
scalar IntersectionExampleScenario.node[467].nic.phy80211p 	busyTime 	0
scalar IntersectionExampleScenario.node[467].nic.mac1609_4 	ReceivedUnicastPackets 	0
scalar IntersectionExampleScenario.node[467].nic.mac1609_4 	ReceivedBroadcasts 	0
scalar IntersectionExampleScenario.node[467].nic.mac1609_4 	SentPackets 	0
scalar IntersectionExampleScenario.node[467].nic.mac1609_4 	SNIRLostPackets 	0
scalar IntersectionExampleScenario.node[467].nic.mac1609_4 	RXTXLostPackets 	0
scalar IntersectionExampleScenario.node[467].nic.mac1609_4 	TotalLostPackets 	0
scalar IntersectionExampleScenario.node[467].nic.mac1609_4 	DroppedPacketsInMac 	0
scalar IntersectionExampleScenario.node[467].nic.mac1609_4 	TooLittleTime 	0
scalar IntersectionExampleScenario.node[467].nic.mac1609_4 	TimesIntoBackoff 	0
scalar IntersectionExampleScenario.node[467].nic.mac1609_4 	SlotsBackoff 	0
scalar IntersectionExampleScenario.node[467].nic.mac1609_4 	NumInternalContention 	0
scalar IntersectionExampleScenario.node[467].nic.mac1609_4 	totalBusyTime 	0
scalar IntersectionExampleScenario.node[467].veinsmobility 	startTime 	1763.75
scalar IntersectionExampleScenario.node[467].veinsmobility 	totalTime 	36.25
scalar IntersectionExampleScenario.node[467].veinsmobility 	stopTime 	1800
scalar IntersectionExampleScenario.node[467].veinsmobility 	minSpeed 	3.3674700260162
scalar IntersectionExampleScenario.node[467].veinsmobility 	maxSpeed 	15.291080474854
scalar IntersectionExampleScenario.node[467].veinsmobility 	totalDistance 	444.74269834421
scalar IntersectionExampleScenario.node[467].veinsmobility 	totalCO2Emission 	117.59359133762
scalar IntersectionExampleScenario.node[468].appl 	VehicleRemoved 	0
scalar IntersectionExampleScenario.node[468].appl 	ArrivedAtDest 	0
scalar IntersectionExampleScenario.node[468].appl 	IntersectionEnterTime 	1765.25
scalar IntersectionExampleScenario.node[468].appl 	IntersectionExitTime 	-1
scalar IntersectionExampleScenario.node[468].appl 	NumberOfCollisions 	0
scalar IntersectionExampleScenario.node[468].nic.phy80211p 	busyTime 	0
scalar IntersectionExampleScenario.node[468].nic.mac1609_4 	ReceivedUnicastPackets 	0
scalar IntersectionExampleScenario.node[468].nic.mac1609_4 	ReceivedBroadcasts 	0
scalar IntersectionExampleScenario.node[468].nic.mac1609_4 	SentPackets 	0
scalar IntersectionExampleScenario.node[468].nic.mac1609_4 	SNIRLostPackets 	0
scalar IntersectionExampleScenario.node[468].nic.mac1609_4 	RXTXLostPackets 	0
scalar IntersectionExampleScenario.node[468].nic.mac1609_4 	TotalLostPackets 	0
scalar IntersectionExampleScenario.node[468].nic.mac1609_4 	DroppedPacketsInMac 	0
scalar IntersectionExampleScenario.node[468].nic.mac1609_4 	TooLittleTime 	0
scalar IntersectionExampleScenario.node[468].nic.mac1609_4 	TimesIntoBackoff 	0
scalar IntersectionExampleScenario.node[468].nic.mac1609_4 	SlotsBackoff 	0
scalar IntersectionExampleScenario.node[468].nic.mac1609_4 	NumInternalContention 	0
scalar IntersectionExampleScenario.node[468].nic.mac1609_4 	totalBusyTime 	0
scalar IntersectionExampleScenario.node[468].veinsmobility 	startTime 	1765.25
scalar IntersectionExampleScenario.node[468].veinsmobility 	totalTime 	34.75
scalar IntersectionExampleScenario.node[468].veinsmobility 	stopTime 	1800
scalar IntersectionExampleScenario.node[468].veinsmobility 	minSpeed 	0
scalar IntersectionExampleScenario.node[468].veinsmobility 	maxSpeed 	16.27499961853
scalar IntersectionExampleScenario.node[468].veinsmobility 	totalDistance 	293.62500409329
scalar IntersectionExampleScenario.node[468].veinsmobility 	totalCO2Emission 	84.315326714839
scalar IntersectionExampleScenario.node[469].appl 	VehicleRemoved 	0
scalar IntersectionExampleScenario.node[469].appl 	ArrivedAtDest 	0
scalar IntersectionExampleScenario.node[469].appl 	IntersectionEnterTime 	1773
scalar IntersectionExampleScenario.node[469].appl 	IntersectionExitTime 	-1
scalar IntersectionExampleScenario.node[469].appl 	NumberOfCollisions 	0
scalar IntersectionExampleScenario.node[469].nic.phy80211p 	busyTime 	0
scalar IntersectionExampleScenario.node[469].nic.mac1609_4 	ReceivedUnicastPackets 	0
scalar IntersectionExampleScenario.node[469].nic.mac1609_4 	ReceivedBroadcasts 	0
scalar IntersectionExampleScenario.node[469].nic.mac1609_4 	SentPackets 	0
scalar IntersectionExampleScenario.node[469].nic.mac1609_4 	SNIRLostPackets 	0
scalar IntersectionExampleScenario.node[469].nic.mac1609_4 	RXTXLostPackets 	0
scalar IntersectionExampleScenario.node[469].nic.mac1609_4 	TotalLostPackets 	0
scalar IntersectionExampleScenario.node[469].nic.mac1609_4 	DroppedPacketsInMac 	0
scalar IntersectionExampleScenario.node[469].nic.mac1609_4 	TooLittleTime 	0
scalar IntersectionExampleScenario.node[469].nic.mac1609_4 	TimesIntoBackoff 	0
scalar IntersectionExampleScenario.node[469].nic.mac1609_4 	SlotsBackoff 	0
scalar IntersectionExampleScenario.node[469].nic.mac1609_4 	NumInternalContention 	0
scalar IntersectionExampleScenario.node[469].nic.mac1609_4 	totalBusyTime 	0
scalar IntersectionExampleScenario.node[469].veinsmobility 	startTime 	1773
scalar IntersectionExampleScenario.node[469].veinsmobility 	totalTime 	27
scalar IntersectionExampleScenario.node[469].veinsmobility 	stopTime 	1800
scalar IntersectionExampleScenario.node[469].veinsmobility 	minSpeed 	2.4338881969452
scalar IntersectionExampleScenario.node[469].veinsmobility 	maxSpeed 	15.02499961853
scalar IntersectionExampleScenario.node[469].veinsmobility 	totalDistance 	280.24646759033
scalar IntersectionExampleScenario.node[469].veinsmobility 	totalCO2Emission 	68.982621456351
scalar IntersectionExampleScenario.node[470].appl 	VehicleRemoved 	0
scalar IntersectionExampleScenario.node[470].appl 	ArrivedAtDest 	0
scalar IntersectionExampleScenario.node[470].appl 	IntersectionEnterTime 	1773
scalar IntersectionExampleScenario.node[470].appl 	IntersectionExitTime 	1796.8144208142
scalar IntersectionExampleScenario.node[470].appl 	NumberOfCollisions 	0
scalar IntersectionExampleScenario.node[470].nic.phy80211p 	busyTime 	0
scalar IntersectionExampleScenario.node[470].nic.mac1609_4 	ReceivedUnicastPackets 	0
scalar IntersectionExampleScenario.node[470].nic.mac1609_4 	ReceivedBroadcasts 	0
scalar IntersectionExampleScenario.node[470].nic.mac1609_4 	SentPackets 	0
scalar IntersectionExampleScenario.node[470].nic.mac1609_4 	SNIRLostPackets 	0
scalar IntersectionExampleScenario.node[470].nic.mac1609_4 	RXTXLostPackets 	0
scalar IntersectionExampleScenario.node[470].nic.mac1609_4 	TotalLostPackets 	0
scalar IntersectionExampleScenario.node[470].nic.mac1609_4 	DroppedPacketsInMac 	0
scalar IntersectionExampleScenario.node[470].nic.mac1609_4 	TooLittleTime 	0
scalar IntersectionExampleScenario.node[470].nic.mac1609_4 	TimesIntoBackoff 	0
scalar IntersectionExampleScenario.node[470].nic.mac1609_4 	SlotsBackoff 	0
scalar IntersectionExampleScenario.node[470].nic.mac1609_4 	NumInternalContention 	0
scalar IntersectionExampleScenario.node[470].nic.mac1609_4 	totalBusyTime 	0
scalar IntersectionExampleScenario.node[470].veinsmobility 	startTime 	1773
scalar IntersectionExampleScenario.node[470].veinsmobility 	totalTime 	27
scalar IntersectionExampleScenario.node[470].veinsmobility 	stopTime 	1800
scalar IntersectionExampleScenario.node[470].veinsmobility 	minSpeed 	5.6500000953674
scalar IntersectionExampleScenario.node[470].veinsmobility 	maxSpeed 	15.02499961853
scalar IntersectionExampleScenario.node[470].veinsmobility 	totalDistance 	339.27492602645
scalar IntersectionExampleScenario.node[470].veinsmobility 	totalCO2Emission 	93.907054639238
scalar IntersectionExampleScenario.node[471].appl 	VehicleRemoved 	0
scalar IntersectionExampleScenario.node[471].appl 	ArrivedAtDest 	0
scalar IntersectionExampleScenario.node[471].appl 	IntersectionEnterTime 	1782
scalar IntersectionExampleScenario.node[471].appl 	IntersectionExitTime 	-1
scalar IntersectionExampleScenario.node[471].appl 	NumberOfCollisions 	0
scalar IntersectionExampleScenario.node[471].nic.phy80211p 	busyTime 	0
scalar IntersectionExampleScenario.node[471].nic.mac1609_4 	ReceivedUnicastPackets 	0
scalar IntersectionExampleScenario.node[471].nic.mac1609_4 	ReceivedBroadcasts 	0
scalar IntersectionExampleScenario.node[471].nic.mac1609_4 	SentPackets 	0
scalar IntersectionExampleScenario.node[471].nic.mac1609_4 	SNIRLostPackets 	0
scalar IntersectionExampleScenario.node[471].nic.mac1609_4 	RXTXLostPackets 	0
scalar IntersectionExampleScenario.node[471].nic.mac1609_4 	TotalLostPackets 	0
scalar IntersectionExampleScenario.node[471].nic.mac1609_4 	DroppedPacketsInMac 	0
scalar IntersectionExampleScenario.node[471].nic.mac1609_4 	TooLittleTime 	0
scalar IntersectionExampleScenario.node[471].nic.mac1609_4 	TimesIntoBackoff 	0
scalar IntersectionExampleScenario.node[471].nic.mac1609_4 	SlotsBackoff 	0
scalar IntersectionExampleScenario.node[471].nic.mac1609_4 	NumInternalContention 	0
scalar IntersectionExampleScenario.node[471].nic.mac1609_4 	totalBusyTime 	0
scalar IntersectionExampleScenario.node[471].veinsmobility 	startTime 	1782
scalar IntersectionExampleScenario.node[471].veinsmobility 	totalTime 	18
scalar IntersectionExampleScenario.node[471].veinsmobility 	stopTime 	1800
scalar IntersectionExampleScenario.node[471].veinsmobility 	minSpeed 	5.6500000953674
scalar IntersectionExampleScenario.node[471].veinsmobility 	maxSpeed 	15.02499961853
scalar IntersectionExampleScenario.node[471].veinsmobility 	totalDistance 	248.74777984619
scalar IntersectionExampleScenario.node[471].veinsmobility 	totalCO2Emission 	60.070484411085
scalar IntersectionExampleScenario.node[472].appl 	VehicleRemoved 	0
scalar IntersectionExampleScenario.node[472].appl 	ArrivedAtDest 	0
scalar IntersectionExampleScenario.node[472].appl 	IntersectionEnterTime 	1782.25
scalar IntersectionExampleScenario.node[472].appl 	IntersectionExitTime 	-1
scalar IntersectionExampleScenario.node[472].appl 	NumberOfCollisions 	0
scalar IntersectionExampleScenario.node[472].nic.phy80211p 	busyTime 	0
scalar IntersectionExampleScenario.node[472].nic.mac1609_4 	ReceivedUnicastPackets 	0
scalar IntersectionExampleScenario.node[472].nic.mac1609_4 	ReceivedBroadcasts 	0
scalar IntersectionExampleScenario.node[472].nic.mac1609_4 	SentPackets 	0
scalar IntersectionExampleScenario.node[472].nic.mac1609_4 	SNIRLostPackets 	0
scalar IntersectionExampleScenario.node[472].nic.mac1609_4 	RXTXLostPackets 	0
scalar IntersectionExampleScenario.node[472].nic.mac1609_4 	TotalLostPackets 	0
scalar IntersectionExampleScenario.node[472].nic.mac1609_4 	DroppedPacketsInMac 	0
scalar IntersectionExampleScenario.node[472].nic.mac1609_4 	TooLittleTime 	0
scalar IntersectionExampleScenario.node[472].nic.mac1609_4 	TimesIntoBackoff 	0
scalar IntersectionExampleScenario.node[472].nic.mac1609_4 	SlotsBackoff 	0
scalar IntersectionExampleScenario.node[472].nic.mac1609_4 	NumInternalContention 	0
scalar IntersectionExampleScenario.node[472].nic.mac1609_4 	totalBusyTime 	0
scalar IntersectionExampleScenario.node[472].veinsmobility 	startTime 	1782.25
scalar IntersectionExampleScenario.node[472].veinsmobility 	totalTime 	17.75
scalar IntersectionExampleScenario.node[472].veinsmobility 	stopTime 	1800
scalar IntersectionExampleScenario.node[472].veinsmobility 	minSpeed 	5.6500000953674
scalar IntersectionExampleScenario.node[472].veinsmobility 	maxSpeed 	15.64999961853
scalar IntersectionExampleScenario.node[472].veinsmobility 	totalDistance 	232.10651397705
scalar IntersectionExampleScenario.node[472].veinsmobility 	totalCO2Emission 	64.33102150057
scalar IntersectionExampleScenario.node[473].appl 	VehicleRemoved 	0
scalar IntersectionExampleScenario.node[473].appl 	ArrivedAtDest 	0
scalar IntersectionExampleScenario.node[473].appl 	IntersectionEnterTime 	1791.25
scalar IntersectionExampleScenario.node[473].appl 	IntersectionExitTime 	-1
scalar IntersectionExampleScenario.node[473].appl 	NumberOfCollisions 	0
scalar IntersectionExampleScenario.node[473].nic.phy80211p 	busyTime 	0
scalar IntersectionExampleScenario.node[473].nic.mac1609_4 	ReceivedUnicastPackets 	0
scalar IntersectionExampleScenario.node[473].nic.mac1609_4 	ReceivedBroadcasts 	0
scalar IntersectionExampleScenario.node[473].nic.mac1609_4 	SentPackets 	0
scalar IntersectionExampleScenario.node[473].nic.mac1609_4 	SNIRLostPackets 	0
scalar IntersectionExampleScenario.node[473].nic.mac1609_4 	RXTXLostPackets 	0
scalar IntersectionExampleScenario.node[473].nic.mac1609_4 	TotalLostPackets 	0
scalar IntersectionExampleScenario.node[473].nic.mac1609_4 	DroppedPacketsInMac 	0
scalar IntersectionExampleScenario.node[473].nic.mac1609_4 	TooLittleTime 	0
scalar IntersectionExampleScenario.node[473].nic.mac1609_4 	TimesIntoBackoff 	0
scalar IntersectionExampleScenario.node[473].nic.mac1609_4 	SlotsBackoff 	0
scalar IntersectionExampleScenario.node[473].nic.mac1609_4 	NumInternalContention 	0
scalar IntersectionExampleScenario.node[473].nic.mac1609_4 	totalBusyTime 	0
scalar IntersectionExampleScenario.node[473].veinsmobility 	startTime 	1791.25
scalar IntersectionExampleScenario.node[473].veinsmobility 	totalTime 	8.75
scalar IntersectionExampleScenario.node[473].veinsmobility 	stopTime 	1800
scalar IntersectionExampleScenario.node[473].veinsmobility 	minSpeed 	5.6500000953674
scalar IntersectionExampleScenario.node[473].veinsmobility 	maxSpeed 	16.27499961853
scalar IntersectionExampleScenario.node[473].veinsmobility 	totalDistance 	115.93257904053
scalar IntersectionExampleScenario.node[473].veinsmobility 	totalCO2Emission 	44.820154360021
scalar IntersectionExampleScenario.node[474].appl 	VehicleRemoved 	0
scalar IntersectionExampleScenario.node[474].appl 	ArrivedAtDest 	0
scalar IntersectionExampleScenario.node[474].appl 	IntersectionEnterTime 	1795.5
scalar IntersectionExampleScenario.node[474].appl 	IntersectionExitTime 	-1
scalar IntersectionExampleScenario.node[474].appl 	NumberOfCollisions 	0
scalar IntersectionExampleScenario.node[474].nic.phy80211p 	busyTime 	0
scalar IntersectionExampleScenario.node[474].nic.mac1609_4 	ReceivedUnicastPackets 	0
scalar IntersectionExampleScenario.node[474].nic.mac1609_4 	ReceivedBroadcasts 	0
scalar IntersectionExampleScenario.node[474].nic.mac1609_4 	SentPackets 	0
scalar IntersectionExampleScenario.node[474].nic.mac1609_4 	SNIRLostPackets 	0
scalar IntersectionExampleScenario.node[474].nic.mac1609_4 	RXTXLostPackets 	0
scalar IntersectionExampleScenario.node[474].nic.mac1609_4 	TotalLostPackets 	0
scalar IntersectionExampleScenario.node[474].nic.mac1609_4 	DroppedPacketsInMac 	0
scalar IntersectionExampleScenario.node[474].nic.mac1609_4 	TooLittleTime 	0
scalar IntersectionExampleScenario.node[474].nic.mac1609_4 	TimesIntoBackoff 	0
scalar IntersectionExampleScenario.node[474].nic.mac1609_4 	SlotsBackoff 	0
scalar IntersectionExampleScenario.node[474].nic.mac1609_4 	NumInternalContention 	0
scalar IntersectionExampleScenario.node[474].nic.mac1609_4 	totalBusyTime 	0
scalar IntersectionExampleScenario.node[474].veinsmobility 	startTime 	1795.5
scalar IntersectionExampleScenario.node[474].veinsmobility 	totalTime 	4.5
scalar IntersectionExampleScenario.node[474].veinsmobility 	stopTime 	1800
scalar IntersectionExampleScenario.node[474].veinsmobility 	minSpeed 	5.6500000953674
scalar IntersectionExampleScenario.node[474].veinsmobility 	maxSpeed 	15.02499961853
scalar IntersectionExampleScenario.node[474].veinsmobility 	totalDistance 	47.592376708984
scalar IntersectionExampleScenario.node[474].veinsmobility 	totalCO2Emission 	31.450573767787
scalar IntersectionExampleScenario.node[475].appl 	VehicleRemoved 	0
scalar IntersectionExampleScenario.node[475].appl 	ArrivedAtDest 	0
scalar IntersectionExampleScenario.node[475].appl 	IntersectionEnterTime 	1795.5
scalar IntersectionExampleScenario.node[475].appl 	IntersectionExitTime 	-1
scalar IntersectionExampleScenario.node[475].appl 	NumberOfCollisions 	0
scalar IntersectionExampleScenario.node[475].nic.phy80211p 	busyTime 	0
scalar IntersectionExampleScenario.node[475].nic.mac1609_4 	ReceivedUnicastPackets 	0
scalar IntersectionExampleScenario.node[475].nic.mac1609_4 	ReceivedBroadcasts 	0
scalar IntersectionExampleScenario.node[475].nic.mac1609_4 	SentPackets 	0
scalar IntersectionExampleScenario.node[475].nic.mac1609_4 	SNIRLostPackets 	0
scalar IntersectionExampleScenario.node[475].nic.mac1609_4 	RXTXLostPackets 	0
scalar IntersectionExampleScenario.node[475].nic.mac1609_4 	TotalLostPackets 	0
scalar IntersectionExampleScenario.node[475].nic.mac1609_4 	DroppedPacketsInMac 	0
scalar IntersectionExampleScenario.node[475].nic.mac1609_4 	TooLittleTime 	0
scalar IntersectionExampleScenario.node[475].nic.mac1609_4 	TimesIntoBackoff 	0
scalar IntersectionExampleScenario.node[475].nic.mac1609_4 	SlotsBackoff 	0
scalar IntersectionExampleScenario.node[475].nic.mac1609_4 	NumInternalContention 	0
scalar IntersectionExampleScenario.node[475].nic.mac1609_4 	totalBusyTime 	0
scalar IntersectionExampleScenario.node[475].veinsmobility 	startTime 	1795.5
scalar IntersectionExampleScenario.node[475].veinsmobility 	totalTime 	4.5
scalar IntersectionExampleScenario.node[475].veinsmobility 	stopTime 	1800
scalar IntersectionExampleScenario.node[475].veinsmobility 	minSpeed 	5.6500000953674
scalar IntersectionExampleScenario.node[475].veinsmobility 	maxSpeed 	16.27499961853
scalar IntersectionExampleScenario.node[475].veinsmobility 	totalDistance 	48.003112792969
scalar IntersectionExampleScenario.node[475].veinsmobility 	totalCO2Emission 	36.587390467016
scalar IntersectionExampleScenario.node[476].appl 	VehicleRemoved 	0
scalar IntersectionExampleScenario.node[476].appl 	ArrivedAtDest 	0
scalar IntersectionExampleScenario.node[476].appl 	IntersectionEnterTime 	1797.75
scalar IntersectionExampleScenario.node[476].appl 	IntersectionExitTime 	-1
scalar IntersectionExampleScenario.node[476].appl 	NumberOfCollisions 	0
scalar IntersectionExampleScenario.node[476].nic.phy80211p 	busyTime 	0
scalar IntersectionExampleScenario.node[476].nic.mac1609_4 	ReceivedUnicastPackets 	0
scalar IntersectionExampleScenario.node[476].nic.mac1609_4 	ReceivedBroadcasts 	0
scalar IntersectionExampleScenario.node[476].nic.mac1609_4 	SentPackets 	0
scalar IntersectionExampleScenario.node[476].nic.mac1609_4 	SNIRLostPackets 	0
scalar IntersectionExampleScenario.node[476].nic.mac1609_4 	RXTXLostPackets 	0
scalar IntersectionExampleScenario.node[476].nic.mac1609_4 	TotalLostPackets 	0
scalar IntersectionExampleScenario.node[476].nic.mac1609_4 	DroppedPacketsInMac 	0
scalar IntersectionExampleScenario.node[476].nic.mac1609_4 	TooLittleTime 	0
scalar IntersectionExampleScenario.node[476].nic.mac1609_4 	TimesIntoBackoff 	0
scalar IntersectionExampleScenario.node[476].nic.mac1609_4 	SlotsBackoff 	0
scalar IntersectionExampleScenario.node[476].nic.mac1609_4 	NumInternalContention 	0
scalar IntersectionExampleScenario.node[476].nic.mac1609_4 	totalBusyTime 	0
scalar IntersectionExampleScenario.node[476].veinsmobility 	startTime 	1797.75
scalar IntersectionExampleScenario.node[476].veinsmobility 	totalTime 	2.25
scalar IntersectionExampleScenario.node[476].veinsmobility 	stopTime 	1800
scalar IntersectionExampleScenario.node[476].veinsmobility 	minSpeed 	5.6500000953674
scalar IntersectionExampleScenario.node[476].veinsmobility 	maxSpeed 	10.64999961853
scalar IntersectionExampleScenario.node[476].veinsmobility 	totalDistance 	17.63436126709
scalar IntersectionExampleScenario.node[476].veinsmobility 	totalCO2Emission 	13.355361796212
