file 17809110 1591478128                                        
version 2
run nodebug-7-20200606-17:12:28-10964
attr configname nodebug
attr datetime 20200606-17:12:28
attr experiment nodebug
attr inifile omnetpp.ini
attr iterationvars ""
attr iterationvars2 $repetition=7
attr measurement ""
attr network "\"org.car2x.veins.modules.application.ExtTraCIScenarioManagerLaunchd.IntersectionExampleScenario\""
attr processid 10964
attr repetition 7
attr replication #7
attr resultdir results
attr runnumber 7
attr seedset 7
param **.coreDebug false
param **.debug false
param *.**.nic.mac1609_4.bitrate 18Mbps
param *.**.nic.mac1609_4.txPower 20mW
param *.**.nic.mac1609_4.useServiceChannel false
param *.**.nic.phy80211p.analogueModels "xmldoc(\"config.xml\")"
param *.**.nic.phy80211p.decider "xmldoc(\"config.xml\")"
param *.**.nic.phy80211p.sensitivity -89dBm
param *.**.nic.phy80211p.thermalNoise -110dBm
param *.**.nic.phy80211p.usePropagationDelay true
param *.**.nic.phy80211p.useThermalNoise true
param *.annotations.draw false
param *.connectionManager.alpha 2.0
param *.connectionManager.carrierFrequency "5.890e9 Hz"
param *.connectionManager.pMax 20mW
param *.connectionManager.sat -89dBm
param *.connectionManager.sendDirect true
param *.manager.autoShutdown true
param *.manager.host "\"localhost\""
param *.manager.launchConfig "xmldoc(\"paramics.launchd.xml\")"
param *.manager.margin 25
param *.manager.moduleDisplayString "\"\""
param *.manager.moduleName "\"node\""
param *.manager.moduleType "\"org.car2x.veins.nodes.Car\""
param *.manager.port 9999
param *.manager.updateInterval 250ms
param *.node[*0].veinsmobility.accidentCount 0
param *.node[*0].veinsmobility.accidentDuration 30s
param *.node[*0].veinsmobility.accidentStart 75s
param *.node[*].appl.LiderSelectZoneRadio 55.0
param *.node[*].appl.ShareDataZoneRadio 110.0
param *.node[*].appl.TiempoSemaforo 30.0
param *.node[*].appl.beaconInterval 1s
param *.node[*].appl.beaconPriority 3
param *.node[*].appl.dataOnSch false
param *.node[*].appl.dataPriority 2
param *.node[*].appl.debug false
param *.node[*].appl.headerLength "256 bit"
param *.node[*].appl.maxOffset 0.005s
param *.node[*].appl.sendBeacons false
param *.node[*].appl.sendData true
param *.node[*].applType "\"Dummy\""
param *.node[*].mobilityType "\"TraCIMobility\""
param *.node[*].mobilityType.debug true
param *.node[*].veinsmobility.x 0
param *.node[*].veinsmobility.y 0
param *.node[*].veinsmobility.z 1.895
param *.node[*].veinsmobilityType "\"org.car2x.veins.modules.mobility.traci.TraCIMobility\""
param *.node[*].veinsmobilityType.debug true
param *.playgroundSizeX 8500m
param *.playgroundSizeY 8500m
param *.playgroundSizeZ 50m
param *.world.use2D false
param *.world.useTorus false

vector 10724  IntersectionExampleScenario.manager  vehiclesinsim  ETV
attr type  int
vector 10725  IntersectionExampleScenario.manager  realtime  ETV
attr type  int
attr unit  s
vector 10728  IntersectionExampleScenario.node[0].veinsmobility  posx  ETV
vector 10729  IntersectionExampleScenario.node[0].veinsmobility  posy  ETV
vector 10730  IntersectionExampleScenario.node[0].veinsmobility  speed  ETV
vector 10731  IntersectionExampleScenario.node[0].veinsmobility  acceleration  ETV
vector 10732  IntersectionExampleScenario.node[0].veinsmobility  co2emission  ETV
vector 10735  IntersectionExampleScenario.node[1].veinsmobility  posx  ETV
vector 10736  IntersectionExampleScenario.node[1].veinsmobility  posy  ETV
vector 10737  IntersectionExampleScenario.node[1].veinsmobility  speed  ETV
vector 10738  IntersectionExampleScenario.node[1].veinsmobility  acceleration  ETV
vector 10739  IntersectionExampleScenario.node[1].veinsmobility  co2emission  ETV
vector 10742  IntersectionExampleScenario.node[2].veinsmobility  posx  ETV
vector 10743  IntersectionExampleScenario.node[2].veinsmobility  posy  ETV
vector 10744  IntersectionExampleScenario.node[2].veinsmobility  speed  ETV
vector 10745  IntersectionExampleScenario.node[2].veinsmobility  acceleration  ETV
vector 10746  IntersectionExampleScenario.node[2].veinsmobility  co2emission  ETV
vector 10749  IntersectionExampleScenario.node[3].veinsmobility  posx  ETV
vector 10750  IntersectionExampleScenario.node[3].veinsmobility  posy  ETV
vector 10756  IntersectionExampleScenario.node[4].veinsmobility  posx  ETV
vector 10757  IntersectionExampleScenario.node[4].veinsmobility  posy  ETV
vector 10751  IntersectionExampleScenario.node[3].veinsmobility  speed  ETV
vector 10758  IntersectionExampleScenario.node[4].veinsmobility  speed  ETV
vector 10752  IntersectionExampleScenario.node[3].veinsmobility  acceleration  ETV
vector 10753  IntersectionExampleScenario.node[3].veinsmobility  co2emission  ETV
vector 10759  IntersectionExampleScenario.node[4].veinsmobility  acceleration  ETV
vector 10760  IntersectionExampleScenario.node[4].veinsmobility  co2emission  ETV
vector 10763  IntersectionExampleScenario.node[5].veinsmobility  posx  ETV
vector 10764  IntersectionExampleScenario.node[5].veinsmobility  posy  ETV
vector 10765  IntersectionExampleScenario.node[5].veinsmobility  speed  ETV
vector 10766  IntersectionExampleScenario.node[5].veinsmobility  acceleration  ETV
vector 10767  IntersectionExampleScenario.node[5].veinsmobility  co2emission  ETV
vector 10770  IntersectionExampleScenario.node[6].veinsmobility  posx  ETV
vector 10771  IntersectionExampleScenario.node[6].veinsmobility  posy  ETV
vector 10772  IntersectionExampleScenario.node[6].veinsmobility  speed  ETV
vector 10773  IntersectionExampleScenario.node[6].veinsmobility  acceleration  ETV
vector 10774  IntersectionExampleScenario.node[6].veinsmobility  co2emission  ETV
vector 10777  IntersectionExampleScenario.node[7].veinsmobility  posx  ETV
vector 10778  IntersectionExampleScenario.node[7].veinsmobility  posy  ETV
vector 10779  IntersectionExampleScenario.node[7].veinsmobility  speed  ETV
vector 10780  IntersectionExampleScenario.node[7].veinsmobility  acceleration  ETV
vector 10781  IntersectionExampleScenario.node[7].veinsmobility  co2emission  ETV
vector 10784  IntersectionExampleScenario.node[8].veinsmobility  posx  ETV
vector 10785  IntersectionExampleScenario.node[8].veinsmobility  posy  ETV
vector 10786  IntersectionExampleScenario.node[8].veinsmobility  speed  ETV
vector 10787  IntersectionExampleScenario.node[8].veinsmobility  acceleration  ETV
vector 10788  IntersectionExampleScenario.node[8].veinsmobility  co2emission  ETV
vector 10791  IntersectionExampleScenario.node[9].veinsmobility  posx  ETV
vector 10792  IntersectionExampleScenario.node[9].veinsmobility  posy  ETV
vector 10793  IntersectionExampleScenario.node[9].veinsmobility  speed  ETV
vector 10794  IntersectionExampleScenario.node[9].veinsmobility  acceleration  ETV
vector 10795  IntersectionExampleScenario.node[9].veinsmobility  co2emission  ETV
vector 10798  IntersectionExampleScenario.node[10].veinsmobility  posx  ETV
vector 10799  IntersectionExampleScenario.node[10].veinsmobility  posy  ETV
vector 10800  IntersectionExampleScenario.node[10].veinsmobility  speed  ETV
vector 10801  IntersectionExampleScenario.node[10].veinsmobility  acceleration  ETV
vector 10802  IntersectionExampleScenario.node[10].veinsmobility  co2emission  ETV
vector 10805  IntersectionExampleScenario.node[11].veinsmobility  posx  ETV
vector 10806  IntersectionExampleScenario.node[11].veinsmobility  posy  ETV
vector 10807  IntersectionExampleScenario.node[11].veinsmobility  speed  ETV
vector 10808  IntersectionExampleScenario.node[11].veinsmobility  acceleration  ETV
vector 10809  IntersectionExampleScenario.node[11].veinsmobility  co2emission  ETV
10739	7692 4977 67 2309 9 48.25 158 0.973 11.648172402475 490.57537699676 2629.9523465222
10738	12669 4524 67 2309 9 48.25 158 -3.1246910095215 2.5 38.171613693237 230.31292596212
10737	17193 4871 62 2309 8.75 48.25 159 5.6500000953674 15.64999961853 2215.7269830704 31789.000764955
10736	22064 5180 57 2309 8.5 48.25 160 483.14999389648 735.20401000977 85870.418685913 47065818.46455
10735	27244 5159 57 2309 8.5 48.25 160 184.17810058594 486.86709594727 63752.272033691 27183352.788352
vector 10812  IntersectionExampleScenario.node[12].veinsmobility  posx  ETV
vector 10813  IntersectionExampleScenario.node[12].veinsmobility  posy  ETV
vector 10814  IntersectionExampleScenario.node[12].veinsmobility  speed  ETV
vector 10815  IntersectionExampleScenario.node[12].veinsmobility  acceleration  ETV
vector 10816  IntersectionExampleScenario.node[12].veinsmobility  co2emission  ETV
vector 10819  IntersectionExampleScenario.node[13].veinsmobility  posx  ETV
vector 10820  IntersectionExampleScenario.node[13].veinsmobility  posy  ETV
10732	32958 5664 30 2771 6.25 54.25 193 0.973 12.553400930962 599.84244526318 3488.2587327684
10731	38622 5311 30 2771 6.25 54.25 193 -8.9823589324951 4 42.924703598022 530.51384894322
10730	43933 5464 27 2771 6 54.25 194 0 16.89999961853 2171.6446604729 32358.142858769
10729	49397 6280 24 2771 5.75 54.25 195 184.17810058594 483.36395263672 80460.067016602 35058392.008825
10728	55677 6238 24 2771 5.75 54.25 195 486.85000610352 731.55372619629 102491.51890564 54801847.654322
vector 10821  IntersectionExampleScenario.node[13].veinsmobility  speed  ETV
vector 10822  IntersectionExampleScenario.node[13].veinsmobility  acceleration  ETV
vector 10823  IntersectionExampleScenario.node[13].veinsmobility  co2emission  ETV
10760	62162 5677 129 2950 11 56.75 184 0.973 11.648172402475 558.70576585487 2902.2514332512
10759	67839 5638 129 2950 11 56.75 184 -6.8117866516113 4 38.850629806519 453.96590780041
10758	73477 5838 118 2950 10.75 56.75 185 0 15.64999961853 2199.6124577522 31107.524252541
10757	79315 6061 107 2950 10.5 56.75 186 483.14999389648 785.82187652588 104367.51428986 60456601.614885
10756	85376 6054 107 2950 10.5 56.75 186 483.14999389648 732.56100463867 98193.467437744 52845127.775472
vector 10826  IntersectionExampleScenario.node[14].veinsmobility  posx  ETV
vector 10827  IntersectionExampleScenario.node[14].veinsmobility  posy  ETV
vector 10828  IntersectionExampleScenario.node[14].veinsmobility  speed  ETV
vector 10829  IntersectionExampleScenario.node[14].veinsmobility  acceleration  ETV
vector 10830  IntersectionExampleScenario.node[14].veinsmobility  co2emission  ETV
vector 10833  IntersectionExampleScenario.node[15].veinsmobility  posx  ETV
vector 10834  IntersectionExampleScenario.node[15].veinsmobility  posy  ETV
10746	91985 6734 86 3671 9.75 68 234 0.973 11.90022389248 614.85403481278 3130.6618979734
10745	98719 6188 86 3671 9.75 68 234 -8.013355255127 4 39.529638290405 494.85818162182
10744	104907 6429 79 3671 9.5 68 235 0 16 2214.6716985703 31920.742883582
10743	111336 7705 72 3671 9.25 68 236 486.85000610352 486.85000610352 114896.60144043 55937411.112546
10742	119041 7691 72 3671 9.25 68 236 235.99810791016 785.82187652588 121233.314888 66407413.54787
vector 10835  IntersectionExampleScenario.node[15].veinsmobility  speed  ETV
vector 10836  IntersectionExampleScenario.node[15].veinsmobility  acceleration  ETV
vector 10837  IntersectionExampleScenario.node[15].veinsmobility  co2emission  ETV
10753	126979 7344 129 3791 11 70 237 0.973 11.36141391502 607.60906661013 2842.1358374164
10752	134323 6902 129 3791 11 70 237 -4.5 2.5 37.492597579956 428.67953031318
10751	141225 7326 118 3791 10.75 70 238 0 15.25 2273.6742721656 31147.713817995
10750	148551 7808 107 3791 10.5 70 239 486.85000610352 734.21481323242 124719.38748169 66166524.953773
10749	156359 7784 107 3791 10.5 70 239 486.85000610352 807.09531402588 133587.86769867 77037493.09509
10767	164143 6339 441 3866 18 71.25 214 0.973 11.54047740176 569.98010275897 2830.5248170649
10766	170482 6635 441 3866 18 71.25 214 -3.864887714386 2.5000009536743 38.680875778198 324.42988593804
10765	177117 6888 428 3866 17.75 71.25 215 0 15.5 2216.3384756707 29479.709720919
10764	184005 7085 415 3866 17.5 71.25 216 486.85000610352 486.85000610352 105159.60131836 51196952.543686
10763	191090 7039 415 3866 17.5 71.25 216 236.669921875 785.82187652588 112783.74445343 63038770.309253
vector 10840  IntersectionExampleScenario.node[16].veinsmobility  posx  ETV
vector 10841  IntersectionExampleScenario.node[16].veinsmobility  posy  ETV
vector 10842  IntersectionExampleScenario.node[16].veinsmobility  speed  ETV
vector 10843  IntersectionExampleScenario.node[16].veinsmobility  acceleration  ETV
vector 10844  IntersectionExampleScenario.node[16].veinsmobility  co2emission  ETV
vector 10847  IntersectionExampleScenario.node[17].veinsmobility  posx  ETV
vector 10848  IntersectionExampleScenario.node[17].veinsmobility  posy  ETV
10774	198684 5709 848 4017 25.75 73.5 192 0.973 11.90022389248 556.49975276272 3067.2193742286
10773	204393 5867 848 4017 25.75 73.5 192 -3.38134765625 2.5 39.869146347046 328.52758396205
10772	210260 6055 833 4017 25.5 73.5 193 3.0132594108582 16 2210.2592949867 29012.51760619
10771	216315 6366 818 4017 25.25 73.5 194 236.55859375 486.85000610352 86218.613830566 39340224.950979
10770	222681 6384 818 4017 25.25 73.5 194 483.14999389648 785.82187652588 109920.10814667 64088487.306582
vector 10849  IntersectionExampleScenario.node[17].veinsmobility  speed  ETV
vector 10850  IntersectionExampleScenario.node[17].veinsmobility  acceleration  ETV
vector 10851  IntersectionExampleScenario.node[17].veinsmobility  co2emission  ETV
10781	229312 6282 912 4330 26.75 79.25 211 0.973 11.648172402475 585.6090409168 3053.6156278771
10780	235594 5974 912 4330 26.75 79.25 211 -8.154444694519 4 38.001859664917 498.55868015313
10779	241568 6109 895 4330 26.5 79.25 212 0 15.64999961853 2207.2648222446 31182.313512204
10778	247677 7022 878 4330 26.25 79.25 213 483.14999389648 483.14999389648 102910.94869995 49721424.236263
10777	254699 6994 878 4330 26.25 79.25 213 184.17810058594 732.3010559082 96768.186935425 48120487.910522
10795	261693 5191 1872 4487 42 83.25 166 0.973 11.648172402475 558.31175898132 3318.0373276949
10794	266884 4800 1872 4487 42 83.25 166 -3.3654479980469 2.5 38.341367721558 362.37834175001
10793	271684 5192 1857 4487 41.75 83.25 167 5.6500000953674 15.64999961853 2185.3031187057 30048.822327136
10792	276876 5534 1842 4487 41.5 83.25 168 236.26489257812 483.14999389648 72938.185821533 32612947.389797
10791	282410 5514 1842 4487 41.5 83.25 168 184.17810058594 483.17156982422 66930.617706299 28413044.450996
10788	287924 6300 1617 4739 37.75 90.25 211 0.973 11.648172402475 578.45441258103 2919.6013437118
10787	294224 5731 1617 4739 37.75 90.25 211 -7.4922728538513 4 38.171613693237 479.41815337878
10786	299955 6061 1600 4739 37.5 90.25 212 0 15.64999961853 2175.1208332777 30519.903072215
10785	306016 7002 1583 4739 37.25 90.25 213 184.17810058594 483.36395263672 88444.548431396 38679356.95086
10784	313018 6960 1583 4739 37.25 90.25 213 486.85000610352 732.53002929688 111867.83778381 59773433.682548
10809	319978 5626 2119 4748 45.75 90.5 180 0.973 11.36141391502 539.34798256408 2757.2670287943
10808	325604 5156 2119 4748 45.75 90.5 180 -8.4870567321777 4 37.15309715271 476.36065124764
10807	330760 5500 2100 4748 45.5 90.5 181 0 15.25 2176.7448656559 30094.704683899
10806	336260 5996 2081 4748 45.25 90.5 182 486.63604736328 785.82187652588 102861.61016083 59981642.120145
10805	342256 5942 2081 4748 45.25 90.5 182 236.84155273438 483.14999389648 79595.960571289 35794337.402397
vector 10854  IntersectionExampleScenario.node[18].veinsmobility  posx  ETV
vector 10855  IntersectionExampleScenario.node[18].veinsmobility  posy  ETV
vector 10856  IntersectionExampleScenario.node[18].veinsmobility  speed  ETV
10802	348430 5894 1996 4822 44 92.5 195 0.973 11.648172402475 552.48131417643 2839.44035119
10801	354324 6273 1996 4822 44 92.5 195 -2.753059387207 2.5 38.171613693237 314.63633064463
10800	360597 6439 1979 4822 43.75 92.5 196 1.1683392524719 15.64999961853 2210.9472067356 29601.921173069
10799	367036 6472 1962 4822 43.5 92.5 197 184.17810058594 487.05731201172 80566.167602539 34832588.162301
10798	373508 6493 1962 4822 43.5 92.5 197 235.55511474609 486.85000610352 87377.351043701 39811785.684129
vector 10857  IntersectionExampleScenario.node[18].veinsmobility  acceleration  ETV
vector 10858  IntersectionExampleScenario.node[18].veinsmobility  co2emission  ETV
vector 10861  IntersectionExampleScenario.node[19].veinsmobility  posx  ETV
vector 10862  IntersectionExampleScenario.node[19].veinsmobility  posy  ETV
10823	380324 4965 2809 4887 54.75 94 158 0.973 11.648172402475 547.67760492707 3348.5053540349
10822	385289 4666 2809 4887 54.75 94 158 -3.2256698608398 2.5 39.699392318726 307.50877945993
10821	389955 4952 2790 4887 54.5 94 159 5.6500000953674 15.64999961853 2206.6457004547 31655.360988854
10820	394907 5275 2771 4887 54.25 94 160 483.14999389648 785.82187652588 91514.166938782 54102029.952008
10819	400182 5271 2771 4887 54.25 94 160 483.14999389648 732.88137817383 85526.098983765 46660961.865998
vector 10863  IntersectionExampleScenario.node[19].veinsmobility  speed  ETV
vector 10864  IntersectionExampleScenario.node[19].veinsmobility  acceleration  ETV
vector 10865  IntersectionExampleScenario.node[19].veinsmobility  co2emission  ETV
10830	405700 5035 3021 5030 57.75 97.25 159 0.973 11.517696008722 500.05420774448 2760.1952551817
10829	410735 4806 3021 5030 57.75 97.25 159 -3.5505676269531 2.5 37.15309715271 248.10158634279
10828	415541 4997 3003 5030 57.5 97.25 160 5.6500000953674 15.468235015869 2200.2415294647 31083.566109685
10827	420538 5290 2984 5030 57.25 97.25 161 184.17810058594 487.06796264648 64046.745330811 27267020.265692
10826	425828 5307 2984 5030 57.25 97.25 161 238.62542724609 486.85000610352 69942.273468018 31339160.569812
vector 10868  IntersectionExampleScenario.node[20].veinsmobility  posx  ETV
vector 10869  IntersectionExampleScenario.node[20].veinsmobility  posy  ETV
vector 10870  IntersectionExampleScenario.node[20].veinsmobility  speed  ETV
vector 10875  IntersectionExampleScenario.node[21].veinsmobility  posx  ETV
vector 10876  IntersectionExampleScenario.node[21].veinsmobility  posy  ETV
vector 10871  IntersectionExampleScenario.node[20].veinsmobility  acceleration  ETV
vector 10872  IntersectionExampleScenario.node[20].veinsmobility  co2emission  ETV
vector 10877  IntersectionExampleScenario.node[21].veinsmobility  speed  ETV
vector 10878  IntersectionExampleScenario.node[21].veinsmobility  acceleration  ETV
vector 10879  IntersectionExampleScenario.node[21].veinsmobility  co2emission  ETV
vector 10882  IntersectionExampleScenario.node[22].veinsmobility  posx  ETV
vector 10883  IntersectionExampleScenario.node[22].veinsmobility  posy  ETV
vector 10884  IntersectionExampleScenario.node[22].veinsmobility  speed  ETV
vector 10885  IntersectionExampleScenario.node[22].veinsmobility  acceleration  ETV
vector 10886  IntersectionExampleScenario.node[22].veinsmobility  co2emission  ETV
vector 10889  IntersectionExampleScenario.node[23].veinsmobility  posx  ETV
vector 10890  IntersectionExampleScenario.node[23].veinsmobility  posy  ETV
vector 10896  IntersectionExampleScenario.node[24].veinsmobility  posx  ETV
vector 10897  IntersectionExampleScenario.node[24].veinsmobility  posy  ETV
vector 10891  IntersectionExampleScenario.node[23].veinsmobility  speed  ETV
vector 10892  IntersectionExampleScenario.node[23].veinsmobility  acceleration  ETV
vector 10893  IntersectionExampleScenario.node[23].veinsmobility  co2emission  ETV
vector 10898  IntersectionExampleScenario.node[24].veinsmobility  speed  ETV
vector 10899  IntersectionExampleScenario.node[24].veinsmobility  acceleration  ETV
vector 10900  IntersectionExampleScenario.node[24].veinsmobility  co2emission  ETV
10844	433140 4797 3915 5610 72 109.25 150 0.973 12.717865293408 542.81471460904 3465.517124374
10843	437937 4514 3915 5610 72 109.25 150 -3.6458148956299 2.5 43.773473739624 335.40468951869
10842	442451 4657 3898 5610 71.75 109.25 151 5.6500000953674 17.125 2175.2194695473 33182.498478024
10841	447108 5045 3881 5610 71.5 109.25 152 486.85000610352 730.94660949707 81428.099472046 44459934.836942
10840	452153 5040 3881 5610 71.5 109.25 152 486.83026123047 785.82187652588 87143.439491272 51632651.318776
vector 10903  IntersectionExampleScenario.node[25].veinsmobility  posx  ETV
vector 10904  IntersectionExampleScenario.node[25].veinsmobility  posy  ETV
vector 10905  IntersectionExampleScenario.node[25].veinsmobility  speed  ETV
vector 10906  IntersectionExampleScenario.node[25].veinsmobility  acceleration  ETV
vector 10907  IntersectionExampleScenario.node[25].veinsmobility  co2emission  ETV
vector 10910  IntersectionExampleScenario.node[26].veinsmobility  posx  ETV
vector 10911  IntersectionExampleScenario.node[26].veinsmobility  posy  ETV
vector 10912  IntersectionExampleScenario.node[26].veinsmobility  speed  ETV
vector 10913  IntersectionExampleScenario.node[26].veinsmobility  acceleration  ETV
vector 10914  IntersectionExampleScenario.node[26].veinsmobility  co2emission  ETV
10816	457995 7553 2522 6049 51 115.25 258 0.973 11.00486315618 599.29736254789 2616.2751165331
10815	465548 6689 2522 6049 51 115.25 258 -7.3892593383789 4 34.267293930054 485.14046451958
10814	472237 7171 2501 6049 50.75 115.25 259 0 14.75 2211.1572678089 29708.342301052
10813	479408 8642 2480 6049 50.5 115.25 260 483.14999389648 483.14999389648 125618.99841309 60692818.316565
10812	488050 8614 2480 6049 50.5 115.25 260 184.17810058594 733.50715637207 119068.98982239 58917907.610562
10851	496664 5391 4049 6163 74 116.75 172 0.973 11.648172402475 539.07787873523 3003.3130976135
10850	502055 5205 4049 6163 74 116.75 172 -2.476188659668 2.5 38.511121749878 300.58354001557
10849	507260 5493 4034 6163 73.75 116.75 173 5.3184728622437 15.64999961853 2208.0067362785 30020.477853276
10848	512753 5803 4017 6163 73.5 116.75 174 483.14999389648 732.78787231445 92432.093170166 50090238.078846
10847	518556 5787 4017 6163 73.5 116.75 174 184.17810058594 486.85000610352 69768.72366333 29767635.499004
vector 10917  IntersectionExampleScenario.node[27].veinsmobility  posx  ETV
vector 10918  IntersectionExampleScenario.node[27].veinsmobility  posy  ETV
vector 10919  IntersectionExampleScenario.node[27].veinsmobility  speed  ETV
vector 10920  IntersectionExampleScenario.node[27].veinsmobility  acceleration  ETV
vector 10921  IntersectionExampleScenario.node[27].veinsmobility  co2emission  ETV
10837	524744 6806 3701 6768 68.5 125.25 228 0.973 11.648172402475 598.51649315633 2976.2920617759
10836	531550 6390 3701 6768 68.5 125.25 228 -6.928421497345 4 38.341367721558 478.39220551961
10835	537940 6514 3686 6768 68.25 125.25 229 0 15.64999961853 2200.1990531683 31124.501353519
10834	544454 7661 3671 6768 68 125.25 230 184.17810058594 486.85000610352 96742.349182129 42726902.570513
10833	552115 7689 3671 6768 68 125.25 230 237.29504394531 486.85000610352 103600.55267334 47753166.050942
vector 10924  IntersectionExampleScenario.node[28].veinsmobility  posx  ETV
vector 10925  IntersectionExampleScenario.node[28].veinsmobility  posy  ETV
vector 10926  IntersectionExampleScenario.node[28].veinsmobility  speed  ETV
vector 10927  IntersectionExampleScenario.node[28].veinsmobility  acceleration  ETV
vector 10928  IntersectionExampleScenario.node[28].veinsmobility  co2emission  ETV
vector 10931  IntersectionExampleScenario.node[29].veinsmobility  posx  ETV
vector 10932  IntersectionExampleScenario.node[29].veinsmobility  posy  ETV
vector 10933  IntersectionExampleScenario.node[29].veinsmobility  speed  ETV
vector 10934  IntersectionExampleScenario.node[29].veinsmobility  acceleration  ETV
vector 10935  IntersectionExampleScenario.node[29].veinsmobility  co2emission  ETV
vector 10938  IntersectionExampleScenario.node[30].veinsmobility  posx  ETV
vector 10939  IntersectionExampleScenario.node[30].veinsmobility  posy  ETV
vector 10940  IntersectionExampleScenario.node[30].veinsmobility  speed  ETV
vector 10945  IntersectionExampleScenario.node[31].veinsmobility  posx  ETV
vector 10946  IntersectionExampleScenario.node[31].veinsmobility  posy  ETV
vector 10941  IntersectionExampleScenario.node[30].veinsmobility  acceleration  ETV
vector 10942  IntersectionExampleScenario.node[30].veinsmobility  co2emission  ETV
vector 10947  IntersectionExampleScenario.node[31].veinsmobility  speed  ETV
vector 10948  IntersectionExampleScenario.node[31].veinsmobility  acceleration  ETV
vector 10949  IntersectionExampleScenario.node[31].veinsmobility  co2emission  ETV
10865	561408 5580 4909 7650 94.5 136.5 169 0.973 10.756497587458 461.376571785 2118.5821971839
10864	566988 4970 4909 7650 94.5 136.5 169 -3.3802299499512 2.5 32.909269332886 194.63964678016
10863	571958 5500 4898 7650 94.25 136.5 170 5.6500000953674 14.39999961853 2214.2943630219 29431.386325559
10862	577458 5781 4887 7650 94 136.5 171 483.14999389648 785.82187652588 97612.57686615 57589846.982151
10861	583239 5780 4887 7650 94 136.5 171 483.14999389648 735.15252685547 91953.420349121 50507745.283848
10879	589019 4805 5204 7738 101.75 137.75 145 0.973 12.553400930962 527.90565547961 3338.6610625235
10878	593824 4389 5204 7738 101.75 137.75 145 -4.1684875488281 2.5000038146973 43.773473739624 277.43052175513
10877	598213 4702 5193 7738 101.5 137.75 146 5.6500000953674 16.89999961853 2215.8509101868 34594.748148072
10876	602915 5000 5182 7738 101.25 137.75 147 486.85000610352 486.85000610352 71566.950897217 34842370.48112
10875	607915 4982 5182 7738 101.25 137.75 147 237.62939453125 785.82187652588 76987.524635315 44204640.307723
vector 10952  IntersectionExampleScenario.node[32].veinsmobility  posx  ETV
vector 10953  IntersectionExampleScenario.node[32].veinsmobility  posy  ETV
vector 10954  IntersectionExampleScenario.node[32].veinsmobility  speed  ETV
vector 10955  IntersectionExampleScenario.node[32].veinsmobility  acceleration  ETV
vector 10956  IntersectionExampleScenario.node[32].veinsmobility  co2emission  ETV
vector 10959  IntersectionExampleScenario.node[33].veinsmobility  posx  ETV
vector 10960  IntersectionExampleScenario.node[33].veinsmobility  posy  ETV
vector 10966  IntersectionExampleScenario.node[34].veinsmobility  posx  ETV
vector 10967  IntersectionExampleScenario.node[34].veinsmobility  posy  ETV
vector 10961  IntersectionExampleScenario.node[33].veinsmobility  speed  ETV
vector 10962  IntersectionExampleScenario.node[33].veinsmobility  acceleration  ETV
vector 10963  IntersectionExampleScenario.node[33].veinsmobility  co2emission  ETV
vector 10968  IntersectionExampleScenario.node[34].veinsmobility  speed  ETV
vector 10969  IntersectionExampleScenario.node[34].veinsmobility  acceleration  ETV
vector 10970  IntersectionExampleScenario.node[34].veinsmobility  co2emission  ETV
vector 10973  IntersectionExampleScenario.node[35].veinsmobility  posx  ETV
vector 10974  IntersectionExampleScenario.node[35].veinsmobility  posy  ETV
vector 10975  IntersectionExampleScenario.node[35].veinsmobility  speed  ETV
10893	614332 5275 5457 8417 107 146.75 160 0.973 11.648172402475 506.62173068736 2743.0137753722
10892	619607 4743 5457 8417 107 146.75 160 -3.47731590271 2.5 38.341367721558 280.06653551157
10891	624350 5156 5440 8417 106.75 146.75 161 5.6500000953674 15.64999961853 2188.2595562935 31102.263563451
10890	629506 5498 5425 8417 106.5 146.75 162 486.85000610352 734.19282531738 87133.305480957 47801203.514396
10889	635004 5504 5425 8417 106.5 146.75 162 486.81842041016 785.82187652588 92685.972343445 54775674.841421
vector 10976  IntersectionExampleScenario.node[35].veinsmobility  acceleration  ETV
vector 10977  IntersectionExampleScenario.node[35].veinsmobility  co2emission  ETV
vector 10980  IntersectionExampleScenario.node[36].veinsmobility  posx  ETV
vector 10981  IntersectionExampleScenario.node[36].veinsmobility  posy  ETV
vector 10982  IntersectionExampleScenario.node[36].veinsmobility  speed  ETV
vector 10983  IntersectionExampleScenario.node[36].veinsmobility  acceleration  ETV
vector 10984  IntersectionExampleScenario.node[36].veinsmobility  co2emission  ETV
vector 10987  IntersectionExampleScenario.node[37].veinsmobility  posx  ETV
vector 10988  IntersectionExampleScenario.node[37].veinsmobility  posy  ETV
vector 10989  IntersectionExampleScenario.node[37].veinsmobility  speed  ETV
10858	641310 6919 4833 8683 92.75 149.5 228 0.973 11.450879080643 589.44664826173 2848.4157996787
10857	648229 6273 4833 8683 92.75 149.5 228 -8.4870233535767 4 37.15309715271 481.82412368335
10856	654502 6672 4822 8683 92.5 149.5 229 0 15.375 2210.4978749752 30840.213807405
10855	661174 7790 4811 8683 92.25 149.5 230 483.14999389648 483.14999389648 111124.49859619 53689800.8185
10854	668964 7764 4811 8683 92.25 149.5 230 184.17810058594 733.24285888672 104841.88548279 52016543.662327
vector 10994  IntersectionExampleScenario.node[38].veinsmobility  posx  ETV
vector 10995  IntersectionExampleScenario.node[38].veinsmobility  posy  ETV
vector 10990  IntersectionExampleScenario.node[37].veinsmobility  acceleration  ETV
vector 10991  IntersectionExampleScenario.node[37].veinsmobility  co2emission  ETV
vector 10996  IntersectionExampleScenario.node[38].veinsmobility  speed  ETV
10872	677129 5991 5182 8735 101.25 150 196 0.973 12.099024792222 576.54279278771 3113.7832900492
10871	683120 6406 5182 8735 101.25 150 196 -3.7772107124329 2.5000019073486 42.415441513062 351.45599764878
10870	689526 6448 5173 8735 101 150 197 0 16.293363571167 2205.0242339484 30704.221237881
10869	695974 6701 5164 8735 100.75 150 198 483.14999389648 732.17758178711 103537.91743469 55130229.833809
10868	702675 6699 5164 8735 100.75 150 198 184.17810058594 486.85000610352 81140.831604004 35088665.793903
vector 10997  IntersectionExampleScenario.node[38].veinsmobility  acceleration  ETV
vector 10998  IntersectionExampleScenario.node[38].veinsmobility  co2emission  ETV
vector 11001  IntersectionExampleScenario.node[39].veinsmobility  posx  ETV
vector 11002  IntersectionExampleScenario.node[39].veinsmobility  posy  ETV
vector 11003  IntersectionExampleScenario.node[39].veinsmobility  speed  ETV
vector 11004  IntersectionExampleScenario.node[39].veinsmobility  acceleration  ETV
vector 11005  IntersectionExampleScenario.node[39].veinsmobility  co2emission  ETV
10914	709944 5414 5764 9079 111.5 153.25 168 0.973 11.200708441096 507.93486216969 2743.970049989
10913	715358 5184 5764 9079 111.5 153.25 168 -4.1243476867676 2.5 35.625318527222 258.55196745388
10912	720542 5525 5745 9079 111.25 153.25 169 5.6500000953674 15.02499961853 2211.5564804077 29746.698569994
10911	726067 5779 5726 9079 111 153.25 170 483.14999389648 483.14999389648 82135.498962402 39683765.822369
10910	731846 5749 5726 9079 111 153.25 170 184.17810058594 732.39198303223 76079.529754639 38317674.807726
vector 11008  IntersectionExampleScenario.node[40].veinsmobility  posx  ETV
vector 11009  IntersectionExampleScenario.node[40].veinsmobility  posy  ETV
vector 11010  IntersectionExampleScenario.node[40].veinsmobility  speed  ETV
vector 11011  IntersectionExampleScenario.node[40].veinsmobility  acceleration  ETV
vector 11012  IntersectionExampleScenario.node[40].veinsmobility  co2emission  ETV
10886	737996 6690 5373 9800 105.5 160 219 0.973 11.90022389248 601.78840992329 3122.4244536542
10885	744686 6149 5373 9800 105.5 160 219 -7.2641291618347 4 39.699392318726 488.74806203163
10884	750835 6453 5360 9800 105.25 160 220 0 16 2217.2994669676 32035.832177997
10883	757288 7501 5347 9800 105 160 221 235.46020507812 785.82187652588 113723.00278473 62649742.951962
10882	764789 7512 5347 9800 105 160 221 483.14999389648 483.14999389648 106776.14865112 51588895.56908
vector 11015  IntersectionExampleScenario.node[41].veinsmobility  posx  ETV
vector 11016  IntersectionExampleScenario.node[41].veinsmobility  posy  ETV
vector 11017  IntersectionExampleScenario.node[41].veinsmobility  speed  ETV
vector 11018  IntersectionExampleScenario.node[41].veinsmobility  acceleration  ETV
vector 11019  IntersectionExampleScenario.node[41].veinsmobility  co2emission  ETV
10928	772702 5287 6823 10370 126 165.5 159 0.973 11.450879080643 484.44724015116 2505.8905222211
10927	777989 4725 6823 10370 126 165.5 159 -3.4813270568848 2.5 37.32285118103 228.62192558588
10926	782714 5174 6804 10370 125.75 165.5 160 5.6500000953674 15.375 2206.7534742355 31288.619008943
10925	787888 5458 6785 10370 125.5 165.5 161 184.17810058594 486.85000610352 64095.075653076 27308215.373776
10924	793346 5479 6785 10370 125.5 165.5 161 237.06439208984 486.85000610352 69856.410461426 31278109.228474
10935	798825 5212 6941 10451 127.5 166.25 156 0.95858896007212 11.990504229548 521.93154270908 2898.79126303
10934	804037 4746 6941 10451 127.5 166.25 156 -4.5 2.5 40.548154830933 261.89488398069
10933	808783 5118 6920 10451 127.25 166.25 157 5.6500000953674 16.125 2297.6846046448 34378.959552197
10932	813901 5352 6899 10451 127 166.25 158 163.88433837891 732.6506652832 69068.8646698 34679324.12086
10931	819253 5389 6899 10451 127 166.25 158 486.85000610352 486.85000610352 76922.300964355 37449622.693993
vector 11022  IntersectionExampleScenario.node[42].veinsmobility  posx  ETV
vector 11023  IntersectionExampleScenario.node[42].veinsmobility  posy  ETV
vector 11024  IntersectionExampleScenario.node[42].veinsmobility  speed  ETV
vector 11025  IntersectionExampleScenario.node[42].veinsmobility  acceleration  ETV
vector 11026  IntersectionExampleScenario.node[42].veinsmobility  co2emission  ETV
vector 11029  IntersectionExampleScenario.node[43].veinsmobility  posx  ETV
vector 11030  IntersectionExampleScenario.node[43].veinsmobility  posy  ETV
vector 11036  IntersectionExampleScenario.node[44].veinsmobility  posx  ETV
vector 11037  IntersectionExampleScenario.node[44].veinsmobility  posy  ETV
vector 11031  IntersectionExampleScenario.node[43].veinsmobility  speed  ETV
vector 11032  IntersectionExampleScenario.node[43].veinsmobility  acceleration  ETV
vector 11033  IntersectionExampleScenario.node[43].veinsmobility  co2emission  ETV
vector 11038  IntersectionExampleScenario.node[44].veinsmobility  speed  ETV
vector 11039  IntersectionExampleScenario.node[44].veinsmobility  acceleration  ETV
vector 11040  IntersectionExampleScenario.node[44].veinsmobility  co2emission  ETV
10900	825845 8028 5474 11235 107.25 173.5 266 0.973 11.450879080643 682.28737299146 3401.5752532645
10899	833873 7258 5474 11235 107.25 173.5 266 -46.183753967285 4 37.492597579956 2528.3929942187
10898	841131 7543 5457 11235 107 173.5 267 0 15.457518577576 2312.9601964951 32681.395476832
10897	848674 9159 5440 11235 106.75 173.5 268 486.85000610352 486.85000610352 130475.80163574 63522144.822722
10896	857833 9146 5440 11235 106.75 173.5 268 235.61877441406 810.23281097412 139502.08185577 77528893.166826
10907	866979 8214 5675 11365 110.25 174.75 259 0.973 11.648172402475 638.6931015871 3010.0411489692
10906	875193 8006 5675 11365 110.25 174.75 259 -4.5 2.5 38.171613693237 462.31815528095
10905	883199 8131 5658 11365 110 174.75 260 0 15.64999961853 2314.1121799247 32356.350147663
10904	891330 8921 5641 11365 109.75 174.75 261 235.17639160156 486.85000610352 118528.79745483 54980667.258581
10903	900251 8916 5641 11365 109.75 174.75 261 483.13436889648 811.2847366333 144663.59106445 82717767.471729
vector 11043  IntersectionExampleScenario.node[45].veinsmobility  posx  ETV
vector 11044  IntersectionExampleScenario.node[45].veinsmobility  posy  ETV
vector 11045  IntersectionExampleScenario.node[45].veinsmobility  speed  ETV
vector 11046  IntersectionExampleScenario.node[45].veinsmobility  acceleration  ETV
vector 11047  IntersectionExampleScenario.node[45].veinsmobility  co2emission  ETV
vector 11050  IntersectionExampleScenario.node[46].veinsmobility  posx  ETV
vector 11051  IntersectionExampleScenario.node[46].veinsmobility  posy  ETV
vector 11052  IntersectionExampleScenario.node[46].veinsmobility  speed  ETV
vector 11053  IntersectionExampleScenario.node[46].veinsmobility  acceleration  ETV
vector 11054  IntersectionExampleScenario.node[46].veinsmobility  co2emission  ETV
10921	909969 7482 6576 12174 122.5 184 247 0.973 11.648172402475 621.8015279128 2998.2059685565
10920	917451 6594 6576 12174 122.5 184 247 -8.6661605834961 4 38.850629806519 531.37584339178
10919	924045 7068 6557 12174 122.25 184 248 0 15.64999961853 2190.5295357704 31284.461508179
10918	931113 8548 6538 12174 122 184 249 483.14999389648 735.29400634766 128783.05601501 67742925.077021
10917	939661 8527 6538 12174 122 184 249 184.17810058594 486.85000610352 105750.96185303 46990118.942001
10949	948188 6544 7497 12336 134.5 186.25 208 0.973 11.36141391502 553.96125866571 2745.0867351198
10948	954732 6718 7497 12336 134.5 186.25 208 -3.820746421814 2.5000004768372 37.15309715271 330.29700573035
10947	961450 6891 7476 12336 134.25 186.25 209 0 15.25 2187.7817875706 28415.44205148
10946	968341 7229 7455 12336 134 186.25 210 235.88525390625 483.14999389648 93055.013244629 42279679.822667
10945	975570 7207 7455 12336 134 186.25 210 184.17810058594 483.14999389648 85989.612976074 37090037.568396
vector 11057  IntersectionExampleScenario.node[47].veinsmobility  posx  ETV
vector 11058  IntersectionExampleScenario.node[47].veinsmobility  posy  ETV
vector 11059  IntersectionExampleScenario.node[47].veinsmobility  speed  ETV
vector 11060  IntersectionExampleScenario.node[47].veinsmobility  acceleration  ETV
vector 11061  IntersectionExampleScenario.node[47].veinsmobility  co2emission  ETV
vector 11064  IntersectionExampleScenario.node[48].veinsmobility  posx  ETV
vector 11065  IntersectionExampleScenario.node[48].veinsmobility  posy  ETV
10956	983332 6305 7827 12443 139 187.75 196 0.973 11.450879080643 554.55717072466 2797.5667436484
10955	989637 6347 7827 12443 139 187.75 196 -4.3666458129883 2.5000019073486 38.341367721558 342.54575162512
10954	995984 6515 7808 12443 138.75 187.75 197 2.4110679626465 15.375 2204.1010372639 28879.317579678
10953	1002499 6827 7789 12443 138.5 187.75 198 483.14999389648 732.30783081055 104017.57443237 55678643.652304
10952	1009326 6796 7789 12443 138.5 187.75 198 184.17810058594 486.85000610352 80254.204711914 34362557.216971
vector 11066  IntersectionExampleScenario.node[48].veinsmobility  speed  ETV
vector 11067  IntersectionExampleScenario.node[48].veinsmobility  acceleration  ETV
vector 11068  IntersectionExampleScenario.node[48].veinsmobility  co2emission  ETV
10977	1016369 5580 8440 12652 147 190.5 175 0.97223939240464 11.648172402475 551.54891113195 3185.694398374
10976	1021949 5246 8440 12652 147 190.5 175 -3.3345108032227 2.5 38.680875778198 346.52513661056
10975	1027195 5775 8417 12652 146.75 190.5 176 5.6500000953674 15.64999961853 2175.7844486237 28667.492241796
10974	1032970 6132 8394 12652 146.5 190.5 177 238.70678710938 483.14999389648 77485.246276855 34859614.326896
10973	1039102 6106 8394 12652 146.5 190.5 177 184.17810058594 483.14999389648 70391.390838623 29744225.837114
10991	1045208 5608 8708 12785 149.75 192.25 171 0.973 11.648172402475 530.30211811028 2839.7013413144
10990	1050816 5580 8708 12785 149.75 192.25 171 -4.5 2.5 40.208654403687 285.28358913276
10989	1056396 5688 8683 12785 149.5 192.25 172 5.6500000953674 15.723113059998 2248.3064641953 31085.52972273
10988	1062084 6002 8658 12785 149.25 192.25 173 235.36517333984 483.14999389648 75525.371276855 33921407.990632
10987	1068086 5982 8658 12785 149.25 192.25 173 169.95465087891 483.14999389648 68064.146636963 28731304.194685
vector 11071  IntersectionExampleScenario.node[49].veinsmobility  posx  ETV
vector 11072  IntersectionExampleScenario.node[49].veinsmobility  posy  ETV
vector 11073  IntersectionExampleScenario.node[49].veinsmobility  speed  ETV
vector 11074  IntersectionExampleScenario.node[49].veinsmobility  acceleration  ETV
vector 11075  IntersectionExampleScenario.node[49].veinsmobility  co2emission  ETV
10942	1074469 7514 7455 12977 134 195.25 246 0.973 11.648172402475 616.41823952256 2966.20918123
10941	1081983 6561 7455 12977 134 195.25 246 -19.403770446777 4 38.341367721558 795.18618105882
10940	1088544 7051 7436 12977 133.75 195.25 247 0 15.64999961853 2177.2252197266 30878.87853925
10939	1095595 8562 7417 12977 133.5 195.25 248 486.63604736328 785.82187652588 135556.70919037 76146503.613904
10938	1104157 8501 7417 12977 133.5 195.25 248 236.95220947266 483.14999389648 111639.45080566 51323979.153404
10984	1112658 6427 8559 13106 148.25 197.25 197 0.973 11.200708441096 559.34802540406 2648.8409232786
10983	1119085 6148 8559 13106 148.25 197.25 197 -7.4570107460022 4 37.32285118103 462.43815126398
10982	1125233 6530 8534 13106 148 197.25 198 0 15.09460735321 2197.3836123347 30450.562226379
10981	1131763 6880 8509 13106 147.75 197.25 199 184.17810058594 486.85000610352 81990.03225708 35736168.532435
10980	1138643 6897 8509 13106 147.75 197.25 199 237.56939697266 486.85000610352 88367.302185059 40287132.11603
10998	1145540 6130 8762 13121 150.25 197.5 190 0.973 11.200708441096 526.69687364872 2604.4143227116
10997	1151670 6095 8762 13121 150.25 197.5 190 -2.0914916992188 2.5 35.964826583862 279.18687897261
10996	1157765 6378 8735 13121 150 197.5 191 2.413192987442 15.02499961853 2212.1217553616 28710.648770872
10995	1164143 6659 8708 13121 149.75 197.5 192 483.12213134766 785.82187652588 108442.70726776 63120195.022955
10994	1170802 6659 8708 13121 149.75 197.5 192 483.14999389648 734.54402160645 101590.94586182 54827783.601444
vector 11078  IntersectionExampleScenario.node[50].veinsmobility  posx  ETV
vector 11079  IntersectionExampleScenario.node[50].veinsmobility  posy  ETV
vector 11080  IntersectionExampleScenario.node[50].veinsmobility  speed  ETV
vector 11081  IntersectionExampleScenario.node[50].veinsmobility  acceleration  ETV
vector 11082  IntersectionExampleScenario.node[50].veinsmobility  co2emission  ETV
11005	1177862 6187 8971 13195 152.25 198.75 187 0.973 11.200708441096 581.94884090139 2878.3454317353
11004	1184049 6222 8971 13195 152.25 198.75 187 -4.5 2.5 41.171224594116 382.10009315668
11003	1190271 6254 8944 13195 152 198.75 188 3.692590713501 15.981797218323 2288.6129009724 31306.008951932
11002	1196525 6556 8917 13195 151.75 198.75 189 483.14999389648 803.92188262939 108403.65409088 64253398.793251
11001	1203081 6571 8917 13195 151.75 198.75 189 483.14999389648 734.84338378906 99538.97013855 53438737.417923
vector 11085  IntersectionExampleScenario.node[51].veinsmobility  posx  ETV
vector 11086  IntersectionExampleScenario.node[51].veinsmobility  posy  ETV
vector 11087  IntersectionExampleScenario.node[51].veinsmobility  speed  ETV
vector 11088  IntersectionExampleScenario.node[51].veinsmobility  acceleration  ETV
vector 11089  IntersectionExampleScenario.node[51].veinsmobility  co2emission  ETV
11012	1210053 5881 9515 13351 157.25 201.25 177 0.973 11.648172402475 536.17702143177 2847.4162306668
11011	1215934 5555 9515 13351 157.25 201.25 177 -3.7837753295898 2.5 38.850629806519 298.61381274154
11010	1221489 5922 9486 13351 157 201.25 178 5.2937941551208 15.64999961853 2237.6636567116 30091.700709306
11009	1227411 6233 9457 13351 156.75 201.25 179 482.93576049805 793.55865478516 102537.7740097 60639097.984595
11008	1233644 6233 9457 13351 156.75 201.25 179 483.14999389648 733.14234924316 94825.27897644 51233958.071593
vector 11092  IntersectionExampleScenario.node[52].veinsmobility  posx  ETV
vector 11093  IntersectionExampleScenario.node[52].veinsmobility  posy  ETV
vector 11099  IntersectionExampleScenario.node[53].veinsmobility  posx  ETV
vector 11100  IntersectionExampleScenario.node[53].veinsmobility  posy  ETV
vector 11094  IntersectionExampleScenario.node[52].veinsmobility  speed  ETV
vector 11101  IntersectionExampleScenario.node[53].veinsmobility  speed  ETV
vector 11095  IntersectionExampleScenario.node[52].veinsmobility  acceleration  ETV
vector 11096  IntersectionExampleScenario.node[52].veinsmobility  co2emission  ETV
vector 11102  IntersectionExampleScenario.node[53].veinsmobility  acceleration  ETV
vector 11103  IntersectionExampleScenario.node[53].veinsmobility  co2emission  ETV
11019	1240679 5130 10154 13481 163.5 203 159 0.973 11.648172402475 506.71497986615 3124.11899213
11018	1245809 5081 10154 13481 163.5 203 159 -3.0089874267578 2.5 38.511121749878 239.9565849432
11017	1250890 5367 10127 13481 163.25 203 160 5.6500000953674 15.64999961853 2221.1029882431 31447.995624533
11016	1256257 5600 10100 13481 163 203 161 235.57427978516 785.82187652588 84230.210899353 48261856.185081
11015	1261857 5633 10100 13481 163 203 161 483.14999389648 483.14999389648 77787.149017334 37582860.57295
vector 11106  IntersectionExampleScenario.node[54].veinsmobility  posx  ETV
vector 11107  IntersectionExampleScenario.node[54].veinsmobility  posy  ETV
vector 11108  IntersectionExampleScenario.node[54].veinsmobility  speed  ETV
vector 11113  IntersectionExampleScenario.node[55].veinsmobility  posx  ETV
vector 11114  IntersectionExampleScenario.node[55].veinsmobility  posy  ETV
vector 11109  IntersectionExampleScenario.node[54].veinsmobility  acceleration  ETV
vector 11110  IntersectionExampleScenario.node[54].veinsmobility  co2emission  ETV
vector 11115  IntersectionExampleScenario.node[55].veinsmobility  speed  ETV
vector 11116  IntersectionExampleScenario.node[55].veinsmobility  acceleration  ETV
vector 11117  IntersectionExampleScenario.node[55].veinsmobility  co2emission  ETV
10963	1268292 7682 8352 13952 146 208.25 250 0.973 11.648172402475 626.22396438231 3023.1357512301
10962	1275974 6748 8352 13952 146 208.25 250 -11.840591430664 4 38.511121749878 620.9927669894
10961	1282722 7247 8331 13952 145.75 208.25 251 0 15.64999961853 2215.0222539902 31746.51507378
10960	1289969 8754 8312 13952 145.5 208.25 252 486.85000610352 486.85000610352 122686.20153809 59729777.967634
10959	1298723 8737 8312 13952 145.5 208.25 252 236.02325439453 785.82187652588 129134.94150543 70351867.175818
10970	1307460 8293 8373 14090 146.25 209.75 255 0.973 11.524187290096 637.61977943668 2959.0487254778
10969	1315753 7870 8373 14090 146.25 209.75 255 -4.5 2.5 38.341367721558 450.36649428961
10968	1323623 8211 8352 14090 146 209.75 256 0 15.47728729248 2281.38843635 31413.670494165
10967	1331834 8927 8331 14090 145.75 209.75 257 486.85000610352 733.0503692627 133300.32049561 70218071.579579
10966	1340761 8916 8331 14090 145.75 209.75 257 486.85000610352 810.23281097412 143266.25745392 82407934.442203
11033	1349677 5569 10960 14389 171 213 169 0.973 11.648172402475 539.45152850255 3067.051761054
11032	1355246 5313 10960 14389 171 213 169 -2.7025108337402 2.5 38.511121749878 310.53044982077
11031	1360559 5627 10931 14389 170.75 213 170 5.6500000953674 15.64999961853 2187.8748245239 29757.835807826
11030	1366186 5975 10904 14389 170.5 213 171 486.85000610352 734.42813110352 91506.123199463 49925883.955754
11029	1372161 5968 10904 14389 170.5 213 171 486.85000610352 785.82187652588 97643.682350159 57508131.242881
vector 11120  IntersectionExampleScenario.node[56].veinsmobility  posx  ETV
vector 11121  IntersectionExampleScenario.node[56].veinsmobility  posy  ETV
vector 11122  IntersectionExampleScenario.node[56].veinsmobility  speed  ETV
vector 11123  IntersectionExampleScenario.node[56].veinsmobility  acceleration  ETV
vector 11124  IntersectionExampleScenario.node[56].veinsmobility  co2emission  ETV
11040	1378530 5755 10989 14482 171.25 214 172 0.973 11.90022389248 550.00575123152 3080.4988511782
11039	1384285 5589 10989 14482 171.25 214 172 -4.5 2.5 39.699392318726 307.78968588583
11038	1389874 5763 10960 14482 171 214 173 5.6500000953674 16 2305.3130016327 32072.689638811
11037	1395637 6088 10931 14482 170.75 214 174 237.27075195312 486.85000610352 76508.075683594 34617474.953303
11036	1401725 6075 10931 14482 170.75 214 174 483.12728881836 810.23281097412 101163.09479523 61014140.974826
vector 11127  IntersectionExampleScenario.node[57].veinsmobility  posx  ETV
vector 11128  IntersectionExampleScenario.node[57].veinsmobility  posy  ETV
vector 11134  IntersectionExampleScenario.node[58].veinsmobility  posx  ETV
vector 11135  IntersectionExampleScenario.node[58].veinsmobility  posy  ETV
vector 11129  IntersectionExampleScenario.node[57].veinsmobility  speed  ETV
vector 11136  IntersectionExampleScenario.node[58].veinsmobility  speed  ETV
vector 11130  IntersectionExampleScenario.node[57].veinsmobility  acceleration  ETV
vector 11131  IntersectionExampleScenario.node[57].veinsmobility  co2emission  ETV
vector 11137  IntersectionExampleScenario.node[58].veinsmobility  acceleration  ETV
vector 11138  IntersectionExampleScenario.node[58].veinsmobility  co2emission  ETV
11026	1408602 6614 10643 14925 168 219.25 206 0.973 11.450879080643 563.95949679093 2793.3275357422
11025	1415216 6111 10643 14925 168 219.25 206 -8.2128305435181 4 36.813589096069 483.09835472119
11024	1421327 6418 10615 14925 167.75 219.25 207 0 15.375 2179.3116796017 30171.351539771
11023	1427745 7274 10586 14925 167.5 219.25 208 483.14999389648 732.66677856445 109061.51922607 58258529.823925
11022	1435019 7249 10586 14925 167.5 219.25 208 184.17810058594 486.85000610352 86142.984313965 37660997.249542
11047	1442268 6568 11723 15838 178.5 229.75 206 0.973 11.810082123732 591.96657756079 3111.714814084
11046	1448836 6244 11723 15838 178.5 229.75 206 -8.1150283813477 4 40.548154830933 497.67514659017
11045	1455080 6313 11698 15838 178.25 229.75 207 0 16.055610656738 2175.1097767353 31463.101626975
11044	1461393 7253 11673 15838 178 229.75 208 184.17810058594 483.36395263672 86334.232940674 37756414.039204
11043	1468646 7208 11673 15838 178 229.75 208 486.85000610352 732.40849304199 109137.66438293 58249637.232843
vector 11141  IntersectionExampleScenario.node[59].veinsmobility  posx  ETV
vector 11142  IntersectionExampleScenario.node[59].veinsmobility  posy  ETV
vector 11143  IntersectionExampleScenario.node[59].veinsmobility  speed  ETV
vector 11144  IntersectionExampleScenario.node[59].veinsmobility  acceleration  ETV
vector 11145  IntersectionExampleScenario.node[59].veinsmobility  co2emission  ETV
11054	1476255 6115 12174 15945 184 231.25 190 0.973 11.90022389248 558.79116731884 3023.4854124729
11053	1482370 6286 12174 15945 184 231.25 190 -3.8189444541931 2.5000009536743 39.699392318726 368.75607621085
11052	1488656 6447 12155 15945 183.75 231.25 191 0 16 2199.848461777 30413.278806802
11051	1495103 6687 12136 15945 183.5 231.25 192 184.17810058594 486.8723449707 78386.014282227 33857039.19838
11050	1501790 6720 12136 15945 183.5 231.25 192 238.68804931641 486.85000610352 85367.936157227 38954828.192277
11068	1508510 5982 12481 16013 188.25 232.25 177 0.973 11.200708441096 540.05274030664 2675.9852250962
11067	1514492 5787 12481 16013 188.25 232.25 177 -7.3439340591431 4 37.32285118103 464.90603897185
11066	1520279 6172 12462 16013 188 232.25 178 0 15.136112213135 2197.6595624089 30463.586811359
11065	1526451 6254 12443 16013 187.75 232.25 179 483.14999389648 785.82187652588 101070.89192963 58945446.733289
11064	1532705 6261 12443 16013 187.75 232.25 179 483.14999389648 732.56443786621 95007.0599823 51434282.760553
vector 11148  IntersectionExampleScenario.node[60].veinsmobility  posx  ETV
vector 11149  IntersectionExampleScenario.node[60].veinsmobility  posy  ETV
vector 11155  IntersectionExampleScenario.node[61].veinsmobility  posx  ETV
vector 11156  IntersectionExampleScenario.node[61].veinsmobility  posy  ETV
vector 11150  IntersectionExampleScenario.node[60].veinsmobility  speed  ETV
vector 11151  IntersectionExampleScenario.node[60].veinsmobility  acceleration  ETV
vector 11152  IntersectionExampleScenario.node[60].veinsmobility  co2emission  ETV
vector 11157  IntersectionExampleScenario.node[61].veinsmobility  speed  ETV
vector 11158  IntersectionExampleScenario.node[61].veinsmobility  acceleration  ETV
vector 11159  IntersectionExampleScenario.node[61].veinsmobility  co2emission  ETV
vector 11162  IntersectionExampleScenario.node[62].veinsmobility  posx  ETV
vector 11163  IntersectionExampleScenario.node[62].veinsmobility  posy  ETV
vector 11164  IntersectionExampleScenario.node[62].veinsmobility  speed  ETV
vector 11165  IntersectionExampleScenario.node[62].veinsmobility  acceleration  ETV
vector 11166  IntersectionExampleScenario.node[62].veinsmobility  co2emission  ETV
11103	1540169 5435 13461 16662 202.75 242.5 160 0.973 11.648172402475 506.62173068736 2743.0137753722
11102	1545604 4905 13461 16662 202.75 242.5 160 -3.4773120880127 2.5 38.341367721558 280.06647708604
11101	1550509 5316 13440 16662 202.5 242.5 161 5.6500000953674 15.64999961853 2188.2596011162 31102.264453378
11100	1555825 5646 13419 16662 202.25 242.5 162 184.17810058594 483.18157958984 64454.02557373 27390686.976022
11099	1561471 5664 13419 16662 202.25 242.5 162 486.85000610352 734.19276428223 87133.301147461 47801198.298551
vector 11169  IntersectionExampleScenario.node[63].veinsmobility  posx  ETV
vector 11170  IntersectionExampleScenario.node[63].veinsmobility  posy  ETV
vector 11171  IntersectionExampleScenario.node[63].veinsmobility  speed  ETV
vector 11172  IntersectionExampleScenario.node[63].veinsmobility  acceleration  ETV
vector 11173  IntersectionExampleScenario.node[63].veinsmobility  co2emission  ETV
11061	1567536 7284 12391 16780 187 244.25 230 0.973 11.00486315618 567.06030979945 2573.2919641451
11060	1574820 6725 12391 16780 187 244.25 230 -6.9985504150391 4 33.927785873413 436.28296631276
11059	1581545 7066 12372 16780 186.75 244.25 231 0 14.75 2206.1098835468 29351.995231491
11058	1588611 8120 12353 16780 186.5 244.25 232 486.85000610352 486.85000610352 112949.20141602 54989319.398774
11057	1596731 8105 12353 16780 186.5 244.25 232 237.69488525391 785.82187652588 119279.72039795 65700963.341138
11089	1604836 5991 13334 16920 201 246.5 183 0.973 11.200708441096 530.6642931323 2714.6905116648
11088	1610827 5841 13334 16920 201 246.5 183 -2.8255290985107 2.5000019073486 35.795072555542 305.5887412171
11087	1616668 6128 13317 16920 200.75 246.5 184 4.0611510276794 15.02499961853 2184.9134068489 28245.390829692
11086	1622796 6458 13300 16920 200.5 246.5 185 486.85000610352 733.15577697754 98599.193939209 53553839.172092
11085	1629254 6462 13300 16920 200.5 246.5 185 486.74240112305 785.82187652588 105108.09659576 61529571.674655
11096	1635716 6001 13461 16965 202.75 247.25 179 0.973 11.200708441096 557.11412619335 2786.5225813358
11095	1641717 5464 13461 16965 202.75 247.25 179 -4.5 2.5 38.341367721558 371.51626680221
11094	1647181 6091 13440 16965 202.5 247.25 180 3.7859396934509 15.290322303772 2297.2707309723 31489.858136232
11093	1653272 6336 13419 16965 202.25 247.25 181 486.85000610352 486.85000610352 88119.851104736 42901150.048182
11092	1659608 6292 13419 16965 202.25 247.25 181 235.62731933594 805.05782318115 96220.3411026 55768073.708877
11110	1665900 5967 13561 17025 204 248.25 178 0.973 12.49650810952 614.17055035707 3321.5396657786
11109	1671867 5847 13561 17025 204 248.25 178 -4.5 2.5 44.688055038452 410.55260176477
11108	1677714 6037 13540 17025 203.75 248.25 179 3.9243016242981 16.82201385498 2341.8597199917 33274.819731168
11107	1683751 6300 13519 17025 203.5 248.25 180 486.85000610352 486.85000610352 87633.001098633 42664127.119739
11106	1690051 6272 13519 17025 203.5 248.25 180 236.22106933594 816.71329498291 96817.588630676 56793212.091628
vector 11176  IntersectionExampleScenario.node[64].veinsmobility  posx  ETV
vector 11177  IntersectionExampleScenario.node[64].veinsmobility  posy  ETV
vector 11178  IntersectionExampleScenario.node[64].veinsmobility  speed  ETV
vector 11179  IntersectionExampleScenario.node[64].veinsmobility  acceleration  ETV
vector 11180  IntersectionExampleScenario.node[64].veinsmobility  co2emission  ETV
11075	1696724 7240 12977 17356 195.25 253.75 235 0.973 12.099024792222 637.95902524582 3480.6199972388
11074	1703964 6834 12977 17356 195.25 253.75 235 -7.7208595275879 4 40.038900375366 528.54449393173
11073	1710798 6989 12960 17356 195 253.75 236 0 16.27499961853 2204.9424500465 31899.227258669
11072	1717787 8296 12943 17356 194.75 253.75 237 483.14999389648 483.14999389648 114506.54855347 55323838.234715
11071	1726083 8266 12943 17356 194.75 253.75 237 184.17810058594 731.70051574707 108008.36935425 53278250.693679
vector 11183  IntersectionExampleScenario.node[65].veinsmobility  posx  ETV
vector 11184  IntersectionExampleScenario.node[65].veinsmobility  posy  ETV
vector 11185  IntersectionExampleScenario.node[65].veinsmobility  speed  ETV
vector 11186  IntersectionExampleScenario.node[65].veinsmobility  acceleration  ETV
vector 11187  IntersectionExampleScenario.node[65].veinsmobility  co2emission  ETV
vector 11190  IntersectionExampleScenario.node[66].veinsmobility  posx  ETV
vector 11191  IntersectionExampleScenario.node[66].veinsmobility  posy  ETV
vector 11192  IntersectionExampleScenario.node[66].veinsmobility  speed  ETV
vector 11193  IntersectionExampleScenario.node[66].veinsmobility  acceleration  ETV
vector 11194  IntersectionExampleScenario.node[66].veinsmobility  co2emission  ETV
11082	1735151 7707 13195 17539 198.75 256.5 232 0.973 11.648172402475 612.19878080426 3002.9784423921
11081	1742858 7612 13195 17539 198.75 256.5 232 -4.5 2.5 39.359884262085 430.18905610699
11080	1750470 7974 13180 17539 198.5 256.5 233 0 15.64999961853 2252.1357796304 31924.205386381
11079	1758444 8191 13165 17539 198.25 256.5 234 483.14999389648 483.14999389648 113057.09857178 54623536.484908
11078	1766635 8148 13165 17539 198.25 256.5 234 174.53436279297 732.96740722656 105322.52420044 51729210.103564
vector 11197  IntersectionExampleScenario.node[67].veinsmobility  posx  ETV
vector 11198  IntersectionExampleScenario.node[67].veinsmobility  posy  ETV
vector 11204  IntersectionExampleScenario.node[68].veinsmobility  posx  ETV
vector 11205  IntersectionExampleScenario.node[68].veinsmobility  posy  ETV
vector 11199  IntersectionExampleScenario.node[67].veinsmobility  speed  ETV
vector 11200  IntersectionExampleScenario.node[67].veinsmobility  acceleration  ETV
vector 11201  IntersectionExampleScenario.node[67].veinsmobility  co2emission  ETV
vector 11206  IntersectionExampleScenario.node[68].veinsmobility  speed  ETV
vector 11207  IntersectionExampleScenario.node[68].veinsmobility  acceleration  ETV
vector 11208  IntersectionExampleScenario.node[68].veinsmobility  co2emission  ETV
11124	1775585 5961 14482 17766 214 259.25 182 0.973 11.450879080643 540.04824053673 2853.6255813829
11123	1781546 5932 14482 17766 214 259.25 182 -4.904125213623 2.5 36.643835067749 333.80565409715
11122	1787478 6109 14459 17766 213.75 259.25 183 4.0308351516724 15.375 2211.5039358139 28993.1168632
11121	1793587 6418 14435 17766 213.5 259.25 184 483.14999389648 733.84777832031 97575.419372559 52786100.996002
11120	1800005 6410 14435 17766 213.5 259.25 184 184.17810058594 486.88052368164 74048.832000732 31633108.135671
vector 11211  IntersectionExampleScenario.node[69].veinsmobility  posx  ETV
vector 11212  IntersectionExampleScenario.node[69].veinsmobility  posy  ETV
vector 11218  IntersectionExampleScenario.node[70].veinsmobility  posx  ETV
vector 11219  IntersectionExampleScenario.node[70].veinsmobility  posy  ETV
vector 11213  IntersectionExampleScenario.node[69].veinsmobility  speed  ETV
vector 11225  IntersectionExampleScenario.node[71].veinsmobility  posx  ETV
vector 11226  IntersectionExampleScenario.node[71].veinsmobility  posy  ETV
vector 11214  IntersectionExampleScenario.node[69].veinsmobility  acceleration  ETV
vector 11215  IntersectionExampleScenario.node[69].veinsmobility  co2emission  ETV
vector 11220  IntersectionExampleScenario.node[70].veinsmobility  speed  ETV
vector 11221  IntersectionExampleScenario.node[70].veinsmobility  acceleration  ETV
vector 11222  IntersectionExampleScenario.node[70].veinsmobility  co2emission  ETV
vector 11227  IntersectionExampleScenario.node[71].veinsmobility  speed  ETV
11138	1807449 5754 14879 18031 218.75 262 174 0.973 10.756497587458 505.11745122719 2640.1271694472
11137	1813203 5598 14879 18031 218.75 262 174 -3.9372901916504 2.5 33.079023361206 277.73239456979
11136	1818801 5896 14856 18031 218.5 262 175 5.6500000953674 14.39999961853 2217.3948459625 28761.328623701
11135	1824697 6160 14833 18031 218.25 262 176 483.14999389648 483.14999389648 85034.398925781 41084369.321982
11134	1830857 6123 14833 18031 218.25 262 176 184.17810058594 733.6753692627 79010.491531372 39915811.252862
vector 11228  IntersectionExampleScenario.node[71].veinsmobility  acceleration  ETV
vector 11229  IntersectionExampleScenario.node[71].veinsmobility  co2emission  ETV
vector 11232  IntersectionExampleScenario.node[72].veinsmobility  posx  ETV
vector 11233  IntersectionExampleScenario.node[72].veinsmobility  posy  ETV
vector 11234  IntersectionExampleScenario.node[72].veinsmobility  speed  ETV
vector 11235  IntersectionExampleScenario.node[72].veinsmobility  acceleration  ETV
vector 11236  IntersectionExampleScenario.node[72].veinsmobility  co2emission  ETV
vector 11239  IntersectionExampleScenario.node[73].veinsmobility  posx  ETV
vector 11240  IntersectionExampleScenario.node[73].veinsmobility  posy  ETV
vector 11241  IntersectionExampleScenario.node[73].veinsmobility  speed  ETV
vector 11242  IntersectionExampleScenario.node[73].veinsmobility  acceleration  ETV
vector 11243  IntersectionExampleScenario.node[73].veinsmobility  co2emission  ETV
11117	1837951 7600 13607 18408 204.5 265.25 244 0.973 11.648172402475 630.20655641274 2891.3478746643
11116	1845551 6973 13607 18408 204.5 265.25 244 -7.1686277389526 4 39.869146347046 480.76076387302
11115	1852524 7265 13584 18408 204.25 265.25 245 0 15.64999961853 2259.5584542751 32079.991379801
11114	1859789 8593 13561 18408 204 265.25 246 164.94219970703 483.36395263672 102552.934021 45133904.112843
11113	1868382 8537 13561 18408 204 265.25 246 486.85000610352 733.82482910156 127885.58053589 67539384.505905
vector 11246  IntersectionExampleScenario.node[74].veinsmobility  posx  ETV
vector 11247  IntersectionExampleScenario.node[74].veinsmobility  posy  ETV
vector 11248  IntersectionExampleScenario.node[74].veinsmobility  speed  ETV
vector 11249  IntersectionExampleScenario.node[74].veinsmobility  acceleration  ETV
vector 11250  IntersectionExampleScenario.node[74].veinsmobility  co2emission  ETV
vector 11253  IntersectionExampleScenario.node[75].veinsmobility  posx  ETV
vector 11254  IntersectionExampleScenario.node[75].veinsmobility  posy  ETV
vector 11255  IntersectionExampleScenario.node[75].veinsmobility  speed  ETV
vector 11256  IntersectionExampleScenario.node[75].veinsmobility  acceleration  ETV
vector 11257  IntersectionExampleScenario.node[75].veinsmobility  co2emission  ETV
vector 11260  IntersectionExampleScenario.node[76].veinsmobility  posx  ETV
vector 11261  IntersectionExampleScenario.node[76].veinsmobility  posy  ETV
vector 11262  IntersectionExampleScenario.node[76].veinsmobility  speed  ETV
vector 11263  IntersectionExampleScenario.node[76].veinsmobility  acceleration  ETV
vector 11264  IntersectionExampleScenario.node[76].veinsmobility  co2emission  ETV
11131	1878122 7476 14879 19930 218.75 278.5 240 0.973 11.450879080643 601.12264826173 2859.7765476787
11130	1885598 6784 14879 19930 218.75 278.5 240 -8.4870567321777 4 37.15309715271 481.82449572734
11129	1892382 7180 14856 19930 218.5 278.5 241 0 15.375 2210.4979660511 30840.215052249
11128	1899562 8471 14833 19930 218.25 278.5 242 486.85000610352 486.85000610352 117817.70147705 57359548.683204
11127	1908033 8455 14833 19930 218.25 278.5 242 236.75714111328 785.82187652588 124238.9161911 68011119.168362
11145	1916488 6300 15927 20121 231 280 197 0.973 11.648172402475 550.63803299545 2861.7424347013
11144	1922788 6331 15927 20121 231 280 197 -2.1501121520996 2.5000004768372 38.341367721558 307.66717750627
11143	1929119 6616 15908 20121 230.75 280 198 1.3440817594528 15.64999961853 2187.6040631533 28850.473335787
11142	1935735 6949 15889 20121 230.5 280 199 486.85000610352 733.90107727051 105125.90870667 56545943.222709
11141	1942684 6950 15889 20121 230.5 280 199 486.85000610352 785.82187652588 112034.99398041 64905821.783394
vector 11267  IntersectionExampleScenario.node[77].veinsmobility  posx  ETV
vector 11268  IntersectionExampleScenario.node[77].veinsmobility  posy  ETV
11152	1949788 5641 16398 20276 238.5 281.25 172 0.973 11.648172402475 536.01138579363 3036.3641345014
11151	1955429 5363 16398 20276 238.5 281.25 172 -3.9579315185547 2.5 38.511121749878 293.77422214817
11150	1960792 5814 16380 20276 238.25 281.25 173 5.6500000953674 15.64999961853 2218.0347590446 30026.040108028
11149	1966606 6089 16363 20276 238 281.25 174 486.85000610352 486.85000610352 84711.901062012 41241989.549081
11148	1972695 6056 16363 20276 238 281.25 174 236.5302734375 785.82187652588 91367.854362488 52146664.758852
vector 11274  IntersectionExampleScenario.node[78].veinsmobility  posx  ETV
vector 11275  IntersectionExampleScenario.node[78].veinsmobility  posy  ETV
vector 11281  IntersectionExampleScenario.node[79].veinsmobility  posx  ETV
vector 11282  IntersectionExampleScenario.node[79].veinsmobility  posy  ETV
vector 11269  IntersectionExampleScenario.node[77].veinsmobility  speed  ETV
vector 11270  IntersectionExampleScenario.node[77].veinsmobility  acceleration  ETV
vector 11271  IntersectionExampleScenario.node[77].veinsmobility  co2emission  ETV
vector 11276  IntersectionExampleScenario.node[78].veinsmobility  speed  ETV
vector 11283  IntersectionExampleScenario.node[79].veinsmobility  speed  ETV
vector 11277  IntersectionExampleScenario.node[78].veinsmobility  acceleration  ETV
vector 11278  IntersectionExampleScenario.node[78].veinsmobility  co2emission  ETV
vector 11284  IntersectionExampleScenario.node[79].veinsmobility  acceleration  ETV
vector 11285  IntersectionExampleScenario.node[79].veinsmobility  co2emission  ETV
vector 11288  IntersectionExampleScenario.node[80].veinsmobility  posx  ETV
vector 11289  IntersectionExampleScenario.node[80].veinsmobility  posy  ETV
vector 11290  IntersectionExampleScenario.node[80].veinsmobility  speed  ETV
vector 11291  IntersectionExampleScenario.node[80].veinsmobility  acceleration  ETV
vector 11292  IntersectionExampleScenario.node[80].veinsmobility  co2emission  ETV
vector 11295  IntersectionExampleScenario.node[81].veinsmobility  posx  ETV
vector 11296  IntersectionExampleScenario.node[81].veinsmobility  posy  ETV
vector 11297  IntersectionExampleScenario.node[81].veinsmobility  speed  ETV
vector 11298  IntersectionExampleScenario.node[81].veinsmobility  acceleration  ETV
vector 11299  IntersectionExampleScenario.node[81].veinsmobility  co2emission  ETV
vector 11302  IntersectionExampleScenario.node[82].veinsmobility  posx  ETV
vector 11303  IntersectionExampleScenario.node[82].veinsmobility  posy  ETV
vector 11304  IntersectionExampleScenario.node[82].veinsmobility  speed  ETV
vector 11305  IntersectionExampleScenario.node[82].veinsmobility  acceleration  ETV
vector 11306  IntersectionExampleScenario.node[82].veinsmobility  co2emission  ETV
11194	1981003 5329 17520 21858 256.25 295.25 157 0.973 11.810082123732 512.93932836398 2877.3139614037
11193	1986332 4927 17520 21858 256.25 295.25 157 -3.3704528808594 2.5 39.699392318726 285.64288050481
11192	1991259 5205 17501 21858 256 295.25 158 5.6500000953674 15.875 2176.3486738205 31459.086025827
11191	1996464 5559 17482 21858 255.75 295.25 159 238.85522460938 483.14999389648 68924.2862854 30765730.409292
11190	2002023 5532 17482 21858 255.75 295.25 159 184.17810058594 483.2028503418 63164.82800293 26818033.877916
vector 11309  IntersectionExampleScenario.node[83].veinsmobility  posx  ETV
vector 11310  IntersectionExampleScenario.node[83].veinsmobility  posy  ETV
11201	2007709 5325 17697 22100 258.5 297.5 157 0.94600815583079 12.353032912318 547.82038661456 3298.0154939524
11200	2013034 4851 17697 22100 258.5 297.5 157 -4.5 2.5 41.566686630249 320.30121422021
11199	2017885 5189 17674 22100 258.25 297.5 158 5.6500000953674 16.625 2283.909327507 34168.175336671
11198	2023074 5559 17653 22100 258 297.5 159 483.14999389648 734.8270111084 84928.163040161 46308259.812334
11197	2028633 5540 17653 22100 258 297.5 159 167.29217529297 486.88012695312 62198.761077881 26324546.479243
vector 11311  IntersectionExampleScenario.node[83].veinsmobility  speed  ETV
vector 11316  IntersectionExampleScenario.node[84].veinsmobility  posx  ETV
vector 11317  IntersectionExampleScenario.node[84].veinsmobility  posy  ETV
vector 11312  IntersectionExampleScenario.node[83].veinsmobility  acceleration  ETV
vector 11313  IntersectionExampleScenario.node[83].veinsmobility  co2emission  ETV
vector 11318  IntersectionExampleScenario.node[84].veinsmobility  speed  ETV
vector 11319  IntersectionExampleScenario.node[84].veinsmobility  acceleration  ETV
vector 11320  IntersectionExampleScenario.node[84].veinsmobility  co2emission  ETV
11159	2034821 7706 16415 22426 238.75 300.5 248 0.973 11.36141391502 607.84311845682 2828.8980885168
11158	2042527 6786 16415 22426 238.75 300.5 248 -14.891460418701 4 37.15309715271 647.71896354514
11157	2049313 7252 16398 22426 238.5 300.5 249 0 15.25 2177.0162611008 30319.756581261
11156	2056565 8731 16380 22426 238.25 300.5 250 184.17810058594 483.36395263672 105778.31048584 46826330.0236
11155	2065296 8689 16380 22426 238.25 300.5 250 486.85000610352 733.15849304199 130049.83999634 68739533.238399
11173	2073985 7291 16712 22452 243.25 300.75 231 0.973 11.200708441096 583.12756340137 2720.7422134512
11172	2081276 6593 16712 22452 243.25 300.75 231 -7.5428676605225 4 35.964826583862 468.39642763928
11171	2087869 7031 16695 22452 243 300.75 232 0 15.02499961853 2206.3722958565 30287.118104959
11170	2094900 8144 16678 22452 242.75 300.75 233 237.70941162109 785.82187652588 119777.17690277 65837353.927436
11169	2103044 8156 16678 22452 242.75 300.75 233 483.14999389648 483.14999389648 112573.94857788 54390102.568306
11166	2111200 7804 16662 22477 242.5 301 235 0.973 11.990504229548 623.78972585027 3060.0222459628
11165	2119004 7877 16662 22477 242.5 301 235 -4.5 2.5 39.869146347046 443.65071929732
11164	2126881 8052 16645 22477 242.25 301 236 0 16.125 2251.0781134395 32139.579378865
11163	2134933 8263 16628 22477 242 301 237 176.21716308594 734.19416809082 106870.68310547 52483749.446371
11162	2143196 8293 16628 22477 242 301 237 486.85000610352 486.85000610352 115383.45144653 56174434.040989
11236	2151489 5366 18146 22722 263 303.5 163 0.973 12.26218747632 575.79839000312 3667.6348256083
11235	2156855 5226 18146 22722 263 303.5 163 -3.3597316741943 2.5 41.227170944214 379.40448150824
11234	2162081 5398 18117 22722 262.75 303.5 164 5.6500000953674 16.5 2190.3926930428 31051.232005112
11233	2167479 5769 18088 22722 262.5 303.5 165 486.67236328125 785.82187652588 94316.717475891 55625594.63117
11232	2173248 5747 18088 22722 262.5 303.5 165 235.29608154297 483.14999389648 71794.233703613 32162967.726286
11180	2178995 7037 17071 22791 249 304.25 222 0.973 11.648172402475 577.13193015093 2932.9620414598
11179	2186032 7265 17071 22791 249 304.25 222 -3.9553701877594 2.5000009536743 37.662351608276 336.5220512419
11178	2193297 7484 17056 22791 248.75 304.25 223 0 15.64999961853 2192.1156485789 28231.033237332
11177	2200781 7806 17040 22791 248.5 304.25 224 184.17810058594 483.14999389648 92063.689331055 39717748.899584
11176	2208587 7816 17040 22791 248.5 304.25 224 486.85000610352 734.89477539062 117441.04928589 62642503.119989
11243	2216403 5726 18234 22943 263.75 306 170 0.973 11.259366828726 498.61700958749 2542.0781793093
11242	2222129 5604 18234 22943 263.75 306 170 -4.5 2.5 35.795072555542 225.89814810013
11241	2227733 5776 18205 22943 263.5 306 171 5.6500000953674 15.107194900513 2304.8533430099 31635.950824964
11240	2233509 5999 18175 22943 263.25 306 172 237.74523925781 808.82032012939 91751.019134521 53764355.495449
11239	2239508 6020 18175 22943 263.25 306 172 483.14999389648 483.14999389648 83101.798950195 40150633.655574
11250	2245528 5090 19169 23243 272.25 309.75 151 0.973 12.553400930962 547.2986062429 3232.3164292192
11249	2250618 5040 19169 23243 272.25 309.75 151 -3.5255851745605 2.5 44.113035202026 314.07003868139
11248	2255658 4999 19140 23243 272 309.75 152 5.6500000953674 16.89999961853 2181.8334646225 33151.60862469
11247	2260657 5332 19111 23243 271.75 309.75 153 184.17810058594 483.16662597656 60800.38772583 25840210.829291
11246	2265989 5348 19111 23243 271.75 309.75 153 486.85000610352 732.29777526855 82028.049133301 44826218.713882
11187	2271337 7131 17465 23452 255.5 312.75 230 0.973 12.099024792222 621.79741277177 3257.1703301001
11186	2278468 6639 17465 23452 255.5 312.75 230 -7.2880325317383 4 41.057416915894 490.95668877536
11185	2285107 6848 17448 23452 255.25 312.75 231 0 16.27499961853 2205.2845826149 32263.751093549
11184	2291955 8118 17431 23452 255 312.75 232 236.18798828125 486.85000610352 104840.89434814 48446874.845474
11183	2300073 8110 17431 23452 255 312.75 232 483.14999389648 785.82187652588 127079.55431366 71623817.691558
11208	2308183 7380 17720 23588 258.75 314.75 225 0.973 11.648172402475 591.06329656908 2921.0701031313
11207	2315563 7332 17720 23588 258.75 314.75 225 -4.2101707458496 2.5 38.341367721558 391.84549776743
11206	2322895 7484 17697 23588 258.5 314.75 226 0 15.64999961853 2227.7796600387 30586.139140309
11205	2330379 7933 17674 23588 258.25 314.75 227 486.85000610352 732.93577575684 118686.67938232 63097584.709889
11204	2338312 7912 17674 23588 258.25 314.75 227 486.85000610352 797.07032012939 126626.92891693 72768056.260524
11222	2346224 7013 18031 23690 262 316.25 218 0.973 11.90022389248 607.00883681179 3131.1095880861
11221	2353237 7179 18031 23690 262 316.25 218 -4.0358009338379 2.5000019073486 41.227170944214 379.12820943432
11220	2360416 7373 18002 23690 261.75 316.25 219 0 16.002222061157 2278.6190820411 31070.631961034
11219	2367789 7696 17975 23690 261.5 316.25 220 236.22601318359 486.85000610352 99014.963867188 45614802.150225
11218	2375485 7670 17975 23690 261.5 316.25 220 483.14999389648 802.69454193115 124056.04102325 72099067.411985
11229	2383155 7512 18060 23922 262.25 319.75 231 0.973 11.093806525473 574.9771580766 2572.3796680753
11228	2390667 7792 18060 23922 262.25 319.75 231 -4.5 2.5 34.437047958374 400.42813811006
11227	2398459 7849 18031 23922 262 319.75 232 0 14.875 2352.0637921989 29902.855727428
11226	2406308 8156 18002 23922 261.75 319.75 233 486.85000610352 486.85000610352 113436.05142212 55226342.327217
11225	2414464 8126 18002 23922 261.75 319.75 233 235.82769775391 818.66915130615 125216.72002411 72703051.065235
11257	2422590 5936 19550 23983 275.5 321 183 0.97223939240464 11.803106068703 593.7650052443 3295.8798116811
11256	2428526 5999 19550 23983 275.5 321 183 -3.9462757110596 2.5 40.36127281189 376.83237007627
11255	2434525 6223 19519 23983 275.25 321 184 4.2514886856079 15.86531829834 2213.9321784973 29255.501332548
11254	2440748 6473 19488 23983 275 321 185 486.85000610352 486.85000610352 90067.25112915 43849241.761954
11253	2447221 6449 19488 23983 275 321 185 237.43719482422 785.82187652588 96778.140724182 54839372.482753
11215	2453670 7827 18002 24109 261.75 324.5 252 0.973 11.200708441096 605.53247458769 2733.4367697073
11214	2461497 7456 18002 24109 261.75 324.5 252 -7.1455273628235 4 35.795072555542 452.38566762217
11213	2468953 7506 17975 24109 261.5 324.5 253 0 15.02499961853 2257.2549840212 30828.987004631
11212	2476459 8888 17950 24109 261.25 324.5 254 483.14999389648 732.46864318848 131420.00650024 69146698.158414
11211	2485347 8873 17950 24109 261.25 324.5 254 164.48669433594 486.85000610352 105989.96478271 46720947.347019
11285	2494220 5788 20382 24172 282 326.25 178 0.973 12.099024792222 553.34572083647 2964.281189808
11284	2500008 5743 20382 24172 282 326.25 178 -2.1541862487793 2.5000019073486 41.057416915894 290.573922425
11283	2505751 6044 20346 24172 281.75 326.25 179 3.4979476928711 16.27499961853 2212.3881661892 30444.312538649
11282	2511795 6293 20309 24172 281.5 326.25 180 483.14999389648 734.04216003418 95130.856491089 51266128.695324
11281	2518088 6271 20309 24172 281.5 326.25 180 184.17810058594 487.06243896484 72707.338531494 31159421.982699
vector 11323  IntersectionExampleScenario.node[85].veinsmobility  posx  ETV
vector 11324  IntersectionExampleScenario.node[85].veinsmobility  posy  ETV
vector 11325  IntersectionExampleScenario.node[85].veinsmobility  speed  ETV
vector 11326  IntersectionExampleScenario.node[85].veinsmobility  acceleration  ETV
vector 11327  IntersectionExampleScenario.node[85].veinsmobility  co2emission  ETV
vector 11330  IntersectionExampleScenario.node[86].veinsmobility  posx  ETV
vector 11331  IntersectionExampleScenario.node[86].veinsmobility  posy  ETV
vector 11337  IntersectionExampleScenario.node[87].veinsmobility  posx  ETV
vector 11338  IntersectionExampleScenario.node[87].veinsmobility  posy  ETV
vector 11332  IntersectionExampleScenario.node[86].veinsmobility  speed  ETV
vector 11333  IntersectionExampleScenario.node[86].veinsmobility  acceleration  ETV
vector 11334  IntersectionExampleScenario.node[86].veinsmobility  co2emission  ETV
vector 11339  IntersectionExampleScenario.node[87].veinsmobility  speed  ETV
vector 11340  IntersectionExampleScenario.node[87].veinsmobility  acceleration  ETV
vector 11341  IntersectionExampleScenario.node[87].veinsmobility  co2emission  ETV
11278	2525562 6705 20382 24534 282 334.75 212 0.973 12.099024792222 605.96608576922 3246.789392854
11277	2532267 6172 20382 24534 282 334.75 212 -6.9979004859924 4 41.227170944214 489.15892816269
11276	2538439 6460 20346 24534 281.75 334.75 213 0 16.27499961853 2207.8191012144 32375.343769043
11275	2544899 7466 20309 24534 281.5 334.75 214 184.17810058594 486.85000610352 89490.354248047 39389962.491447
11274	2552365 7484 20309 24534 281.5 334.75 214 235.68029785156 486.85000610352 96065.12411499 44173009.454652
11264	2559849 7101 19864 24545 278 335 229 0.973 12.099024792222 615.47789751306 3257.4604738164
11263	2566950 6740 19864 24545 278 335 229 -7.231484413147 4 40.038900375366 506.83959583661
11262	2573690 6832 19831 24545 277.75 335 230 0 16.27499961853 2208.5188360214 32028.409468268
11261	2580522 8073 19798 24545 277.5 335 231 483.14999389648 785.82187652588 126641.91999054 71449808.984702
11260	2588595 8079 19798 24545 277.5 335 231 483.14999389648 734.68109130859 119892.67138672 63316977.44761
11271	2596674 7322 20346 24631 281.75 337.25 223 0.973 11.648172402475 592.52748856239 2933.9518715956
11270	2603996 7415 20346 24631 281.75 337.25 223 -4.5 2.5 38.171613693237 410.99562585752
11269	2611411 7603 20309 24631 281.5 337.25 224 0 15.64999961853 2213.0581766777 30180.799396248
11268	2619014 7857 20276 24631 281.25 337.25 225 486.78552246094 793.78281402588 125354.11182404 71910734.652995
11267	2626871 7869 20276 24631 281.25 337.25 225 237.29010009766 483.14999389648 100525.90881348 45952111.601633
11292	2634740 6049 21420 24640 291 337.5 187 0.973 11.648172402475 548.89758883961 2916.2428888203
11291	2640789 6067 21420 24640 291 337.5 187 -3.2917079925537 2.5 38.171613693237 324.05436267156
11290	2646856 6322 21395 24640 290.75 337.5 188 2.5697085857391 15.64999961853 2188.3279027939 28943.220421647
11289	2653178 6589 21370 24640 290.5 337.5 189 184.17810058594 483.24459838867 76388.796447754 32677183.062815
11288	2659767 6609 21370 24640 290.5 337.5 189 486.85000610352 733.70747375488 100267.72802734 54186289.96196
vector 11344  IntersectionExampleScenario.node[88].veinsmobility  posx  ETV
vector 11345  IntersectionExampleScenario.node[88].veinsmobility  posy  ETV
vector 11346  IntersectionExampleScenario.node[88].veinsmobility  speed  ETV
vector 11347  IntersectionExampleScenario.node[88].veinsmobility  acceleration  ETV
vector 11348  IntersectionExampleScenario.node[88].veinsmobility  co2emission  ETV
vector 11351  IntersectionExampleScenario.node[89].veinsmobility  posx  ETV
vector 11352  IntersectionExampleScenario.node[89].veinsmobility  posy  ETV
vector 11358  IntersectionExampleScenario.node[90].veinsmobility  posx  ETV
vector 11359  IntersectionExampleScenario.node[90].veinsmobility  posy  ETV
vector 11353  IntersectionExampleScenario.node[89].veinsmobility  speed  ETV
[...]
vector 14278  IntersectionExampleScenario.node[507].veinsmobility  posy  ETV
vector 14279  IntersectionExampleScenario.node[507].veinsmobility  speed  ETV
vector 14284  IntersectionExampleScenario.node[508].veinsmobility  posx  ETV
vector 14285  IntersectionExampleScenario.node[508].veinsmobility  posy  ETV
vector 14280  IntersectionExampleScenario.node[507].veinsmobility  acceleration  ETV
vector 14281  IntersectionExampleScenario.node[507].veinsmobility  co2emission  ETV
vector 14286  IntersectionExampleScenario.node[508].veinsmobility  speed  ETV
vector 14287  IntersectionExampleScenario.node[508].veinsmobility  acceleration  ETV
vector 14288  IntersectionExampleScenario.node[508].veinsmobility  co2emission  ETV
14169	17062998 8248 140200 146787 1710 1769 237 0.973 11.36141391502 614.56533964974 3006.7043956237
14168	17071246 8371 140200 146787 1710 1769 237 -3.9194459915161 2.5 36.813589096069 458.26480533362
14167	17079617 8429 140169 146787 1709.75 1769 238 0 15.25 2252.0303806569 29239.766356702
14166	17088046 8820 140138 146787 1709.5 1769 239 237.98089599609 483.14999389648 107170.43771362 49122495.696998
14165	17096866 8832 140138 146787 1709.5 1769 239 166.24499511719 483.14999389648 96679.588470459 41287209.858737
14190	17105698 6824 141668 146923 1721.75 1770.75 197 0.973 11.200708441096 550.55982768643 2701.9332867201
14189	17112522 6552 141668 146923 1721.75 1770.75 197 -8.0517911911011 4 36.134572982788 466.4792633935
14188	17119074 6706 141635 146923 1721.5 1770.75 198 0 15.02499961853 2208.8133494854 30371.287981065
14187	17125780 7335 141604 146923 1721.25 1770.75 199 184.17810058594 732.88059997559 90234.248825073 45174181.266409
14186	17133115 7365 141604 146923 1721.25 1770.75 199 486.85000610352 486.85000610352 96883.1512146 47167562.760155
14176	17140480 7974 140350 146923 1711.25 1770.75 239 0.973 11.200708441096 597.3415277755 2770.7999274024
14175	17148454 7535 140350 146923 1711.25 1770.75 239 -9.3850240707397 4 36.134572982788 490.4570960455
14174	17155989 7687 140319 146923 1711 1770.75 240 0 15.02499961853 2237.6338145733 30697.518062309
14173	17163676 8906 140288 146923 1710.75 1770.75 241 483.14999389648 795.46562957764 132944.40219116 75598867.88695
14172	17172582 8911 140288 146923 1710.75 1770.75 241 483.14999389648 732.44580078125 125096.07798767 66061815.882355
14183	17181493 7835 141036 147047 1716.75 1772.5 224 0.973 11.200708441096 591.6917385468 2776.3187516297
14182	17189328 8148 141036 147047 1716.75 1772.5 224 -4.231372833252 2.5 38.680875778198 372.66663917791
14181	17197476 8109 141003 147047 1716.5 1772.5 225 0 15.517435073853 2204.4560728837 30442.430650344
14180	17205585 8349 140970 147047 1716.25 1772.5 226 482.99642944336 785.82187652588 124923.41355133 71026572.044129
14179	17213934 8355 140970 147047 1716.25 1772.5 226 483.14999389648 732.9317779541 117553.57545471 62225624.560913
14204	17222289 7231 141771 147081 1722.5 1773 203 0.973 10.66445601732 561.65429359189 2521.0862087058
14203	17229520 7262 141771 147081 1722.5 1773 203 -4.5 2.5 35.964826583862 401.93056267565
14202	17236782 7443 141736 147081 1722.25 1773 204 0 14.888293266296 2313.7746744053 31335.298695463
14201	17244225 7550 141701 147081 1722 1773 205 161.1796875 735.02145385742 90816.619934082 45114828.271452
14200	17251775 7583 141701 147081 1722 1773 205 486.85000610352 486.85000610352 99804.251251221 48589700.330813
vector 14291  IntersectionExampleScenario.node[509].veinsmobility  posx  ETV
vector 14292  IntersectionExampleScenario.node[509].veinsmobility  posy  ETV
vector 14293  IntersectionExampleScenario.node[509].veinsmobility  speed  ETV
vector 14294  IntersectionExampleScenario.node[509].veinsmobility  acceleration  ETV
vector 14295  IntersectionExampleScenario.node[509].veinsmobility  co2emission  ETV
vector 14298  IntersectionExampleScenario.node[510].veinsmobility  posx  ETV
vector 14299  IntersectionExampleScenario.node[510].veinsmobility  posy  ETV
vector 14300  IntersectionExampleScenario.node[510].veinsmobility  speed  ETV
vector 14301  IntersectionExampleScenario.node[510].veinsmobility  acceleration  ETV
vector 14302  IntersectionExampleScenario.node[510].veinsmobility  co2emission  ETV
14218	17260170 6715 142294 147248 1726.5 1775.25 196 0.973 11.36141391502 550.24985444083 2797.7093921039
14217	17266885 6798 142294 147248 1726.5 1775.25 196 -3.4327774047852 2.5 37.15309715271 333.95007906894
14216	17273683 6967 142261 147248 1726.25 1775.25 197 2.4038763046265 15.25 2189.0757303238 28225.87109448
14215	17280650 7311 142228 147248 1726 1775.25 198 486.85000610352 785.82187652588 111856.15578461 65017542.888028
14214	17287961 7319 142228 147248 1726 1775.25 198 235.81768798828 483.14999389648 87252.232299805 39474795.79407
14232	17295280 6332 142911 147311 1731 1776 181 0.973 11.54047740176 538.70178500108 2797.1623900154
14231	17301612 6279 142911 147311 1731 1776 181 -4.5 2.5 38.341367721558 326.9826833338
14230	17307891 6516 142876 147311 1730.75 1776 182 4.9561996459961 15.5 2213.0871572495 29615.604948451
14229	17314407 6732 142841 147311 1730.5 1776 183 237.34521484375 785.82187652588 95981.81085968 54490745.186939
14228	17321139 6770 142841 147311 1730.5 1776 183 483.14999389648 483.14999389648 88416.448883057 42718406.738198
vector 14305  IntersectionExampleScenario.node[511].veinsmobility  posx  ETV
vector 14306  IntersectionExampleScenario.node[511].veinsmobility  posy  ETV
vector 14307  IntersectionExampleScenario.node[511].veinsmobility  speed  ETV
vector 14308  IntersectionExampleScenario.node[511].veinsmobility  acceleration  ETV
vector 14309  IntersectionExampleScenario.node[511].veinsmobility  co2emission  ETV
vector 14312  IntersectionExampleScenario.node[512].veinsmobility  posx  ETV
vector 14313  IntersectionExampleScenario.node[512].veinsmobility  posy  ETV
vector 14314  IntersectionExampleScenario.node[512].veinsmobility  speed  ETV
vector 14315  IntersectionExampleScenario.node[512].veinsmobility  acceleration  ETV
vector 14316  IntersectionExampleScenario.node[512].veinsmobility  co2emission  ETV
14211	17328721 7885 142039 147945 1724.5 1783.5 237 0.973 11.36141391502 598.33912435003 2836.8946434633
14210	17336606 7540 142039 147945 1724.5 1783.5 237 -9.1079216003418 4 37.492597579956 497.12542421427
14209	17344146 7516 142005 147945 1724.25 1783.5 238 0 15.25 2180.572627306 30348.285205974
14208	17351662 8778 141970 147945 1724 1783.5 239 486.85000610352 734.21499633789 124721.46287537 66168541.28136
14207	17360440 8831 141970 147945 1724 1783.5 239 486.63604736328 785.82187652588 131214.111763 74076773.303803
14239	17369271 6735 143779 148196 1737.75 1786.5 196 0.973 11.200708441096 529.90072591637 2570.0566727726
14238	17376006 6819 143779 148196 1737.75 1786.5 196 -2.0688285827637 2.5 35.795072555542 271.33300009884
14237	17382825 7028 143748 148196 1737.5 1786.5 197 2.2016072273254 15.02499961853 2183.5480456352 27896.21827788
14236	17389853 7313 143717 148196 1737.25 1786.5 198 486.85000610352 733.07591247559 104922.0785675 56627770.784086
14235	17397166 7313 143717 148196 1737.25 1786.5 198 486.81176757812 785.82187652588 111740.85153961 64913972.858099
vector 14319  IntersectionExampleScenario.node[513].veinsmobility  posx  ETV
vector 14320  IntersectionExampleScenario.node[513].veinsmobility  posy  ETV
vector 14321  IntersectionExampleScenario.node[513].veinsmobility  speed  ETV
vector 14326  IntersectionExampleScenario.node[514].veinsmobility  posx  ETV
vector 14327  IntersectionExampleScenario.node[514].veinsmobility  posy  ETV
vector 14322  IntersectionExampleScenario.node[513].veinsmobility  acceleration  ETV
vector 14323  IntersectionExampleScenario.node[513].veinsmobility  co2emission  ETV
vector 14328  IntersectionExampleScenario.node[514].veinsmobility  speed  ETV
vector 14329  IntersectionExampleScenario.node[514].veinsmobility  acceleration  ETV
vector 14330  IntersectionExampleScenario.node[514].veinsmobility  co2emission  ETV
14246	17405291 6983 143845 148303 1738.25 1787.75 199 0.973 11.435466176138 590.51241669074 2918.1338361909
14245	17412274 6945 143845 148303 1738.25 1787.75 199 -4.5 2.5 41.000425338745 389.54390327283
14244	17419219 7105 143812 148303 1738 1787.75 200 2.8986716270447 16.087070465088 2278.8025233746 30321.263106005
14243	17426324 7424 143779 148303 1737.75 1787.75 201 486.85000610352 732.82258605957 105843.58796692 56719573.607685
14242	17433748 7428 143779 148303 1737.75 1787.75 201 486.85000610352 809.56562805176 115566.57647705 68622472.914069
vector 14333  IntersectionExampleScenario.node[515].veinsmobility  posx  ETV
vector 14334  IntersectionExampleScenario.node[515].veinsmobility  posy  ETV
vector 14335  IntersectionExampleScenario.node[515].veinsmobility  speed  ETV
vector 14336  IntersectionExampleScenario.node[515].veinsmobility  acceleration  ETV
vector 14337  IntersectionExampleScenario.node[515].veinsmobility  co2emission  ETV
vector 14340  IntersectionExampleScenario.node[516].veinsmobility  posx  ETV
vector 14341  IntersectionExampleScenario.node[516].veinsmobility  posy  ETV
vector 14342  IntersectionExampleScenario.node[516].veinsmobility  speed  ETV
vector 14343  IntersectionExampleScenario.node[516].veinsmobility  acceleration  ETV
vector 14344  IntersectionExampleScenario.node[516].veinsmobility  co2emission  ETV
vector 14347  IntersectionExampleScenario.node[517].veinsmobility  posx  ETV
vector 14348  IntersectionExampleScenario.node[517].veinsmobility  posy  ETV
vector 14349  IntersectionExampleScenario.node[517].veinsmobility  speed  ETV
vector 14350  IntersectionExampleScenario.node[517].veinsmobility  acceleration  ETV
vector 14351  IntersectionExampleScenario.node[517].veinsmobility  co2emission  ETV
14197	17442394 9296 141701 148925 1722 1794.25 290 0.973 11.648172402475 694.43301877862 3325.0389309146
14196	17451690 8986 141701 148925 1722 1794.25 290 -7.1506204605103 4 38.341367721558 577.84923276661
14195	17460676 9298 141668 148925 1721.75 1794.25 291 0 15.64999961853 2212.9694890976 28688.272835036
14194	17469974 10804 141635 148925 1721.5 1794.25 292 483.14999389648 483.14999389648 141079.79821777 68162703.647834
14193	17480778 10757 141635 148925 1721.5 1794.25 292 184.17810058594 733.41819763184 132318.5801239 64185366.529802
14225	17491535 9218 142397 149100 1727.25 1796 276 0.973 11.450879080643 643.9089615235 2958.356041101
14224	17500753 9402 142397 149100 1727.25 1796 276 -4.4774494171143 2.5 37.15309715271 440.22679964748
14223	17510155 9426 142362 149100 1727 1796 277 0 15.375 2215.6013207473 28348.608395131
14222	17519581 10278 142327 149100 1726.75 1796 278 483.14999389648 735.32926940918 143023.02261353 74772879.271064
14221	17529859 10220 142327 149100 1726.75 1796 278 184.17810058594 486.86566162109 117421.09863281 51662736.405817
vector 14354  IntersectionExampleScenario.node[518].veinsmobility  posx  ETV
vector 14355  IntersectionExampleScenario.node[518].veinsmobility  posy  ETV
vector 14356  IntersectionExampleScenario.node[518].veinsmobility  speed  ETV
vector 14357  IntersectionExampleScenario.node[518].veinsmobility  acceleration  ETV
vector 14358  IntersectionExampleScenario.node[518].veinsmobility  co2emission  ETV
14253	17540485 6900 145062 149497 1748 1800 209 0.973 11.450879080643 542.59756196658 2720.8425570821
14252	17547385 6427 145062 149497 1748 1800 209 -8.2099418640137 4 36.813703536987 483.06962066877
14251	17553812 6607 145033 149497 1747.75 1800 210 0 15.375 1867.3845562935 25538.186707954
14250	17560419 7798 145004 149497 1747.5 1800 211 483.14999389648 785.82187652588 117432.35340118 67310219.854235
14249	17568217 7801 145004 149497 1747.5 1800 211 483.14999389648 649.88265991211 105834.64228821 53444195.408776
14260	17576018 5553 146089 149497 1759 1800 165 0.96333723109819 12.099024792222 531.25124437544 3159.0382473463
14259	17581571 5305 146089 149497 1759 1800 165 -7.1227283477783 4 40.210367202759 543.87284883838
14258	17586876 5410 146072 149497 1758.75 1800 166 0 16.27499961853 1694.8596701622 23670.905125906
14257	17592286 6146 146055 149497 1758.5 1800 167 184.17810058594 483.24322509766 66614.68057251 28272763.856845
14256	17598432 6175 146055 149497 1758.5 1800 167 486.85000610352 611.89767456055 83470.077728271 41868235.166538
14267	17604607 4568 146432 149497 1764.5 1800 143 0.973 12.099024792222 342.80384073834 1712.1045633715
14266	17609175 4384 146432 149497 1764.5 1800 143 -7.8776445388794 4 -1.1000003814697 406.52415687037
14265	17613559 4522 146415 149497 1764.25 1800 144 0 16.27499961853 1171.9406034946 16580.664556703
14264	17618081 5363 146398 149497 1764 1800 145 486.85000610352 486.85000610352 70593.25088501 34368324.624234
14263	17623444 5347 146398 149497 1764 1800 145 493.54061889648 785.82187652588 84853.077980042 51142942.775395
14274	17628791 5065 146470 149497 1765 1800 141 0.96997852711604 12.553400930962 488.59563606799 3016.2072460137
14273	17633856 4860 146470 149497 1765 1800 141 -3.3901557922363 2.5 42.585195541382 233.38468607585
14272	17638716 4994 146451 149497 1764.75 1800 142 5.6500000953674 16.89999961853 2129.5131912231 32818.693828403
14271	17643710 5290 146432 149497 1764.5 1800 143 483.14999389648 483.14999389648 69090.449127197 33381050.074111
14270	17649000 5259 146432 149497 1764.5 1800 143 184.17810058594 711.09791564941 62434.149932861 30770384.138326
14281	17654259 4289 146640 149497 1767.25 1800 132 0.973 11.648172402475 315.64262954207 1514.7742691263
14280	17658548 4038 146640 149497 1767.25 1800 132 -8.0234565734863 2.5 -22.60000038147 337.72547335911
14279	17662586 4313 146621 149497 1767 1800 133 0 15.64999961853 1214.0873856544 17386.37613848
14278	17666899 4957 146602 149497 1766.75 1800 134 483.14999389648 483.14999389648 64742.099182129 31280144.824691
14277	17671856 4929 146602 149497 1766.75 1800 134 167.29217529297 471.60000610352 49091.005401611 19548107.734157
14288	17676785 4522 146682 149497 1767.75 1800 130 0.973 10.750917014328 307.06917959299 1318.7039120879
14287	17681307 4504 146682 149497 1767.75 1800 130 -4.5 2.5 -22.60000038147 272.42518961248
14286	17685811 4821 146661 149497 1767.5 1800 131 0 14.951865196228 1251.7177374158 16891.129149817
14285	17690632 4884 146640 149497 1767.25 1800 132 483.14999389648 483.14999389648 63775.799194336 30813276.991487
14284	17695516 4872 146640 149497 1767.25 1800 132 151.99139404297 465.037109375 45462.366973877 17291103.640267
14295	17700388 3356 147187 149497 1774.5 1800 103 0.973 11.200708441096 264.13278103977 1325.7110270266
14294	17703744 3732 147187 149497 1774.5 1800 103 -3.2781639099121 2.5 -16.364395618439 186.71815075601
14293	17707476 3830 147168 149497 1774.25 1800 104 1.5589011907578 15.266027450562 1105.2288320065 14231.265664001
14292	17711306 3883 147149 149497 1774 1800 105 483.14999389648 483.14999389648 50730.749359131 24510561.243228
14291	17715189 3874 147149 149497 1774 1800 105 178.4638671875 454.71221923828 35455.663421631 12893881.702242
14302	17719063 3536 147248 149497 1775.25 1800 100 0.973 11.648172402475 327.18844425259 1881.1390083479
14301	17722599 3445 147248 149497 1775.25 1800 100 -3.6191139221191 2.5 20.89999961853 246.9928773974
14300	17726044 3488 147227 149497 1775 1800 101 5.6500000953674 15.64999961853 1287.7349386215 17554.335889931
14299	17729532 3744 147206 149497 1774.75 1800 102 184.17810058594 483.26565551758 35467.784881592 13387402.148503
14298	17733276 3771 147206 149497 1774.75 1800 102 486.85000610352 510.63494873047 49814.548278809 24330483.238007
14309	17737047 3208 147399 149497 1777 1800 93 0.973 12.099024792222 291.73366090918 1723.8836992129
14308	17740255 3359 147399 149497 1777 1800 93 -4.5 2.5 8.4092140197754 215.67063294916
14307	17743614 3457 147376 149497 1776.75 1800 94 5.6500000953674 16.27499961853 1252.2559781075 17767.721274982
14306	17747071 3495 147353 149497 1776.5 1800 95 483.14999389648 785.82187652588 59767.55002594 38558350.429444
14305	17750566 3514 147353 149497 1776.5 1800 95 483.14999389648 497.24542236328 45970.941253662 22246158.335696
14316	17754080 2547 147756 149497 1781.25 1800 76 0.973 11.200708441096 215.92445441348 1213.2964876095
14315	17756627 2726 147756 149497 1781.25 1800 76 -2.3788719177246 2.5 2.1379776000977 150.35322953898
14314	17759353 2834 147735 149497 1781 1800 77 5.6500000953674 15.02499961853 938.38668394089 12161.036795158
14313	17762187 2885 147714 149497 1780.75 1800 78 483.14999389648 483.14999389648 37685.699523926 18207845.494969
14312	17765072 2865 147714 149497 1780.75 1800 78 184.17810058594 417.02197265625 23576.641876221 7574679.5883006
14323	17767937 1895 148257 149497 1787.25 1800 52 0.973 10.756497587458 183.34303402185 1066.9378570774
14322	17769832 1904 148257 149497 1787.25 1800 52 -0.43780517578125 2.5 33.24880027771 87.938103996483
14321	17771736 1947 148236 149497 1787 1800 53 5.6500000953674 14.39999961853 682.25171089172 9061.6337420005
14320	17773683 1997 148215 149497 1786.75 1800 54 486.85000610352 486.85000610352 26289.90032959 12799238.135922
14319	17775680 1991 148215 149497 1786.75 1800 54 619.88768005371 785.82187652588 38372.979125977 27413269.457887
14330	17777671 1794 148303 149497 1787.75 1800 50 0.973 11.200708441096 181.89829431061 1159.4322283137
14329	17779465 1769 148303 149497 1787.75 1800 50 -0.60898971557617 2.5 32.542867660522 95.437778710915
14328	17781234 1873 148280 149497 1787.5 1800 51 5.6500000953674 15.02499961853 675.1094865799 9267.6094714365
14327	17783107 1924 148257 149497 1787.25 1800 52 483.14999389648 483.14999389648 25123.799682617 12138563.663313
14326	17785031 1900 148257 149497 1787.25 1800 52 184.17810058594 348.37042236328 13413.457275391 3598513.4438538
14337	17786931 1593 148445 149497 1789.25 1800 44 0.973 11.200708441096 186.53416841127 1203.6549667464
14336	17788524 1551 148445 149497 1789.25 1800 44 -0.46169281005859 2.5 37.425397872925 94.671194106693
14335	17790075 1654 148420 149497 1789 1800 45 5.6500000953674 15.372047424316 608.80725288391 8622.4978266213
14334	17791729 1701 148395 149497 1788.75 1800 46 483.14999389648 483.14999389648 22224.899719238 10737960.1637
14333	17793430 1672 148395 149497 1788.75 1800 46 163.88433837891 311.06915283203 10500.900085449 2496141.7938837
14344	17795102 1252 148679 149497 1791.75 1800 34 1.986667772344 11.200708441096 162.70097737619 1137.8354792096
14343	17796354 1160 148679 149497 1791.75 1800 34 -0.044288635253906 2.5 37.3235912323 93.754473822835
14342	17797514 1284 148655 149497 1791.5 1800 35 5.6500000953674 15.02499961853 450.16580486298 6110.6136579074
14341	17798798 1332 148630 149497 1791.25 1800 36 483.14999389648 483.14999389648 17393.399780273 8403620.9976782
14340	17800130 1306 148630 149497 1791.25 1800 36 158.4375 265.98889160156 7354.2787475586 1544159.2555144
14351	17801436 1102 148775 149497 1792.75 1800 30 1.1181923526251 12.553400930962 182.21638601645 1539.6428570724
14350	17802538 932 148775 149497 1792.75 1800 30 -0.30663299560547 2.5 43.812307357788 112.7146909007
14349	17803470 1132 148750 149497 1792.5 1800 31 5.6500000953674 16.89999961853 414.23612213135 5971.8018928911
14348	17804602 1167 148725 149497 1792.25 1800 32 184.17810058594 282.28527832031 7175.9642944336 1639911.312113
14347	17805769 1184 148725 149497 1792.25 1800 32 486.85000610352 486.85000610352 15579.200195312 7584733.7101758
14358	17806953 148 149422 149497 1799.25 1800 4 5.2162187258585 6.4635356930995 23.356389703243 137.24455235531
14357	17807101 112 149422 149497 1799.25 1800 4 2.4999980926514 2.5 9.9999980926514 24.99999046326
14356	17807213 183 149397 149497 1799 1800 5 5.6500000953674 8.1499996185303 34.5 241.95624880791
14355	17807396 221 149372 149497 1798.75 1800 6 483.14999389648 483.14999389648 2898.8999633789 1400603.499613
14354	17807617 216 149372 149497 1798.75 1800 6 184.17810058594 190.453125 1119.9749755859 209089.4263842
10724	17807833 632 0 149496 0 1800 31 0 25 458 7570
10725	17808465 645 0 149496 0 1800 31 0 180 2685 321909
