file 18073344 1591478337                                        
version 2
run nodebug-10-20200606-17:16:11-10964
attr configname nodebug
attr datetime 20200606-17:16:11
attr experiment nodebug
attr inifile omnetpp.ini
attr iterationvars ""
attr iterationvars2 $repetition=10
attr measurement ""
attr network "\"org.car2x.veins.modules.application.ExtTraCIScenarioManagerLaunchd.IntersectionExampleScenario\""
attr processid 10964
attr repetition 10
attr replication #10
attr resultdir results
attr runnumber 10
attr seedset 10
param **.coreDebug false
param **.debug false
param *.**.nic.mac1609_4.bitrate 18Mbps
param *.**.nic.mac1609_4.txPower 20mW
param *.**.nic.mac1609_4.useServiceChannel false
param *.**.nic.phy80211p.analogueModels "xmldoc(\"config.xml\")"
param *.**.nic.phy80211p.decider "xmldoc(\"config.xml\")"
param *.**.nic.phy80211p.sensitivity -89dBm
param *.**.nic.phy80211p.thermalNoise -110dBm
param *.**.nic.phy80211p.usePropagationDelay true
param *.**.nic.phy80211p.useThermalNoise true
param *.annotations.draw false
param *.connectionManager.alpha 2.0
param *.connectionManager.carrierFrequency "5.890e9 Hz"
param *.connectionManager.pMax 20mW
param *.connectionManager.sat -89dBm
param *.connectionManager.sendDirect true
param *.manager.autoShutdown true
param *.manager.host "\"localhost\""
param *.manager.launchConfig "xmldoc(\"paramics.launchd.xml\")"
param *.manager.margin 25
param *.manager.moduleDisplayString "\"\""
param *.manager.moduleName "\"node\""
param *.manager.moduleType "\"org.car2x.veins.nodes.Car\""
param *.manager.port 9999
param *.manager.updateInterval 250ms
param *.node[*0].veinsmobility.accidentCount 0
param *.node[*0].veinsmobility.accidentDuration 30s
param *.node[*0].veinsmobility.accidentStart 75s
param *.node[*].appl.LiderSelectZoneRadio 55.0
param *.node[*].appl.ShareDataZoneRadio 110.0
param *.node[*].appl.TiempoSemaforo 30.0
param *.node[*].appl.beaconInterval 1s
param *.node[*].appl.beaconPriority 3
param *.node[*].appl.dataOnSch false
param *.node[*].appl.dataPriority 2
param *.node[*].appl.debug false
param *.node[*].appl.headerLength "256 bit"
param *.node[*].appl.maxOffset 0.005s
param *.node[*].appl.sendBeacons false
param *.node[*].appl.sendData true
param *.node[*].applType "\"Dummy\""
param *.node[*].mobilityType "\"TraCIMobility\""
param *.node[*].mobilityType.debug true
param *.node[*].veinsmobility.x 0
param *.node[*].veinsmobility.y 0
param *.node[*].veinsmobility.z 1.895
param *.node[*].veinsmobilityType "\"org.car2x.veins.modules.mobility.traci.TraCIMobility\""
param *.node[*].veinsmobilityType.debug true
param *.playgroundSizeX 8500m
param *.playgroundSizeY 8500m
param *.playgroundSizeZ 50m
param *.world.use2D false
param *.world.useTorus false

vector 14363  IntersectionExampleScenario.manager  vehiclesinsim  ETV
attr type  int
vector 14364  IntersectionExampleScenario.manager  realtime  ETV
attr type  int
attr unit  s
vector 14367  IntersectionExampleScenario.node[0].veinsmobility  posx  ETV
vector 14368  IntersectionExampleScenario.node[0].veinsmobility  posy  ETV
vector 14369  IntersectionExampleScenario.node[0].veinsmobility  speed  ETV
vector 14370  IntersectionExampleScenario.node[0].veinsmobility  acceleration  ETV
vector 14371  IntersectionExampleScenario.node[0].veinsmobility  co2emission  ETV
vector 14374  IntersectionExampleScenario.node[1].veinsmobility  posx  ETV
vector 14375  IntersectionExampleScenario.node[1].veinsmobility  posy  ETV
vector 14376  IntersectionExampleScenario.node[1].veinsmobility  speed  ETV
vector 14377  IntersectionExampleScenario.node[1].veinsmobility  acceleration  ETV
vector 14378  IntersectionExampleScenario.node[1].veinsmobility  co2emission  ETV
vector 14381  IntersectionExampleScenario.node[2].veinsmobility  posx  ETV
vector 14382  IntersectionExampleScenario.node[2].veinsmobility  posy  ETV
vector 14383  IntersectionExampleScenario.node[2].veinsmobility  speed  ETV
vector 14384  IntersectionExampleScenario.node[2].veinsmobility  acceleration  ETV
vector 14385  IntersectionExampleScenario.node[2].veinsmobility  co2emission  ETV
vector 14388  IntersectionExampleScenario.node[3].veinsmobility  posx  ETV
vector 14389  IntersectionExampleScenario.node[3].veinsmobility  posy  ETV
vector 14390  IntersectionExampleScenario.node[3].veinsmobility  speed  ETV
vector 14391  IntersectionExampleScenario.node[3].veinsmobility  acceleration  ETV
vector 14392  IntersectionExampleScenario.node[3].veinsmobility  co2emission  ETV
vector 14395  IntersectionExampleScenario.node[4].veinsmobility  posx  ETV
vector 14396  IntersectionExampleScenario.node[4].veinsmobility  posy  ETV
vector 14397  IntersectionExampleScenario.node[4].veinsmobility  speed  ETV
vector 14398  IntersectionExampleScenario.node[4].veinsmobility  acceleration  ETV
vector 14399  IntersectionExampleScenario.node[4].veinsmobility  co2emission  ETV
vector 14402  IntersectionExampleScenario.node[5].veinsmobility  posx  ETV
vector 14403  IntersectionExampleScenario.node[5].veinsmobility  posy  ETV
vector 14404  IntersectionExampleScenario.node[5].veinsmobility  speed  ETV
vector 14405  IntersectionExampleScenario.node[5].veinsmobility  acceleration  ETV
vector 14406  IntersectionExampleScenario.node[5].veinsmobility  co2emission  ETV
vector 14409  IntersectionExampleScenario.node[6].veinsmobility  posx  ETV
vector 14410  IntersectionExampleScenario.node[6].veinsmobility  posy  ETV
vector 14411  IntersectionExampleScenario.node[6].veinsmobility  speed  ETV
vector 14416  IntersectionExampleScenario.node[7].veinsmobility  posx  ETV
vector 14417  IntersectionExampleScenario.node[7].veinsmobility  posy  ETV
vector 14412  IntersectionExampleScenario.node[6].veinsmobility  acceleration  ETV
vector 14413  IntersectionExampleScenario.node[6].veinsmobility  co2emission  ETV
vector 14418  IntersectionExampleScenario.node[7].veinsmobility  speed  ETV
vector 14419  IntersectionExampleScenario.node[7].veinsmobility  acceleration  ETV
vector 14420  IntersectionExampleScenario.node[7].veinsmobility  co2emission  ETV
vector 14423  IntersectionExampleScenario.node[8].veinsmobility  posx  ETV
vector 14424  IntersectionExampleScenario.node[8].veinsmobility  posy  ETV
vector 14425  IntersectionExampleScenario.node[8].veinsmobility  speed  ETV
vector 14426  IntersectionExampleScenario.node[8].veinsmobility  acceleration  ETV
vector 14427  IntersectionExampleScenario.node[8].veinsmobility  co2emission  ETV
vector 14430  IntersectionExampleScenario.node[9].veinsmobility  posx  ETV
vector 14431  IntersectionExampleScenario.node[9].veinsmobility  posy  ETV
vector 14432  IntersectionExampleScenario.node[9].veinsmobility  speed  ETV
vector 14433  IntersectionExampleScenario.node[9].veinsmobility  acceleration  ETV
vector 14434  IntersectionExampleScenario.node[9].veinsmobility  co2emission  ETV
vector 14437  IntersectionExampleScenario.node[10].veinsmobility  posx  ETV
vector 14438  IntersectionExampleScenario.node[10].veinsmobility  posy  ETV
vector 14439  IntersectionExampleScenario.node[10].veinsmobility  speed  ETV
vector 14444  IntersectionExampleScenario.node[11].veinsmobility  posx  ETV
vector 14445  IntersectionExampleScenario.node[11].veinsmobility  posy  ETV
vector 14440  IntersectionExampleScenario.node[10].veinsmobility  acceleration  ETV
vector 14441  IntersectionExampleScenario.node[10].veinsmobility  co2emission  ETV
vector 14446  IntersectionExampleScenario.node[11].veinsmobility  speed  ETV
vector 14447  IntersectionExampleScenario.node[11].veinsmobility  acceleration  ETV
vector 14448  IntersectionExampleScenario.node[11].veinsmobility  co2emission  ETV
vector 14451  IntersectionExampleScenario.node[12].veinsmobility  posx  ETV
vector 14452  IntersectionExampleScenario.node[12].veinsmobility  posy  ETV
vector 14453  IntersectionExampleScenario.node[12].veinsmobility  speed  ETV
vector 14458  IntersectionExampleScenario.node[13].veinsmobility  posx  ETV
vector 14459  IntersectionExampleScenario.node[13].veinsmobility  posy  ETV
vector 14454  IntersectionExampleScenario.node[12].veinsmobility  acceleration  ETV
vector 14455  IntersectionExampleScenario.node[12].veinsmobility  co2emission  ETV
vector 14460  IntersectionExampleScenario.node[13].veinsmobility  speed  ETV
vector 14465  IntersectionExampleScenario.node[14].veinsmobility  posx  ETV
vector 14466  IntersectionExampleScenario.node[14].veinsmobility  posy  ETV
vector 14461  IntersectionExampleScenario.node[13].veinsmobility  acceleration  ETV
vector 14462  IntersectionExampleScenario.node[13].veinsmobility  co2emission  ETV
vector 14467  IntersectionExampleScenario.node[14].veinsmobility  speed  ETV
vector 14468  IntersectionExampleScenario.node[14].veinsmobility  acceleration  ETV
vector 14469  IntersectionExampleScenario.node[14].veinsmobility  co2emission  ETV
vector 14472  IntersectionExampleScenario.node[15].veinsmobility  posx  ETV
vector 14473  IntersectionExampleScenario.node[15].veinsmobility  posy  ETV
vector 14474  IntersectionExampleScenario.node[15].veinsmobility  speed  ETV
vector 14475  IntersectionExampleScenario.node[15].veinsmobility  acceleration  ETV
vector 14476  IntersectionExampleScenario.node[15].veinsmobility  co2emission  ETV
vector 14479  IntersectionExampleScenario.node[16].veinsmobility  posx  ETV
vector 14480  IntersectionExampleScenario.node[16].veinsmobility  posy  ETV
vector 14481  IntersectionExampleScenario.node[16].veinsmobility  speed  ETV
vector 14486  IntersectionExampleScenario.node[17].veinsmobility  posx  ETV
vector 14487  IntersectionExampleScenario.node[17].veinsmobility  posy  ETV
vector 14482  IntersectionExampleScenario.node[16].veinsmobility  acceleration  ETV
vector 14483  IntersectionExampleScenario.node[16].veinsmobility  co2emission  ETV
vector 14488  IntersectionExampleScenario.node[17].veinsmobility  speed  ETV
vector 14493  IntersectionExampleScenario.node[18].veinsmobility  posx  ETV
vector 14494  IntersectionExampleScenario.node[18].veinsmobility  posy  ETV
vector 14489  IntersectionExampleScenario.node[17].veinsmobility  acceleration  ETV
vector 14490  IntersectionExampleScenario.node[17].veinsmobility  co2emission  ETV
vector 14495  IntersectionExampleScenario.node[18].veinsmobility  speed  ETV
vector 14496  IntersectionExampleScenario.node[18].veinsmobility  acceleration  ETV
vector 14497  IntersectionExampleScenario.node[18].veinsmobility  co2emission  ETV
14371	10505 5815 30 3605 6.25 55 196 0.973 11.810082123732 577.5179259185 3058.8921350552
14370	16320 5251 30 3605 6.25 55 196 -6.9388580322266 4 39.869146347046 481.49561179219
14369	21571 5605 27 3605 6 55 197 0 15.875 2183.3810305595 31318.381281911
14368	27176 6375 24 3605 5.75 55 198 184.17810058594 483.36395263672 81544.734558105 35477887.561502
14367	33551 6327 24 3605 5.75 55 198 486.85000610352 734.37205505371 104471.0615387 56120347.37374
vector 14500  IntersectionExampleScenario.node[19].veinsmobility  posx  ETV
vector 14501  IntersectionExampleScenario.node[19].veinsmobility  posy  ETV
vector 14502  IntersectionExampleScenario.node[19].veinsmobility  speed  ETV
vector 14503  IntersectionExampleScenario.node[19].veinsmobility  acceleration  ETV
vector 14504  IntersectionExampleScenario.node[19].veinsmobility  co2emission  ETV
vector 14507  IntersectionExampleScenario.node[20].veinsmobility  posx  ETV
vector 14508  IntersectionExampleScenario.node[20].veinsmobility  posy  ETV
vector 14509  IntersectionExampleScenario.node[20].veinsmobility  speed  ETV
vector 14510  IntersectionExampleScenario.node[20].veinsmobility  acceleration  ETV
vector 14511  IntersectionExampleScenario.node[20].veinsmobility  co2emission  ETV
14378	40680 6114 61 3942 8.5 58 199 0.973 11.648172402475 570.56526199373 2908.0488760713
14377	46794 5793 61 3942 8.5 58 199 -4.5 2.5000009536743 38.341367721558 438.10112883286
14376	52587 6186 56 3942 8.25 58 200 0 15.64999961853 2253.1055203546 31270.885422956
14375	58773 6493 51 3942 8 58 201 167.29217529297 483.14999389648 81092.9012146 34869884.151047
14374	65266 6514 51 3942 8 58 201 486.85000610352 733.70890808105 106085.83213806 57003413.214922
14399	71780 4984 385 3971 19.5 58.25 156 0.973 11.54047740176 464.21906764276 2334.0371168052
14398	76764 4438 385 3971 19.5 58.25 156 -3.3398780822754 2.5 37.15309715271 186.64487440163
14397	81202 4899 374 3971 19.25 58.25 157 5.6500000953674 15.5 2213.6558599472 31783.541796294
14396	86101 5158 363 3971 19 58.25 158 237.51141357422 785.82187652588 82399.831138611 47156578.047039
14395	91259 5166 363 3971 19 58.25 158 483.14999389648 483.14999389648 76337.699035645 36882558.823143
vector 14514  IntersectionExampleScenario.node[21].veinsmobility  posx  ETV
vector 14515  IntersectionExampleScenario.node[21].veinsmobility  posy  ETV
vector 14516  IntersectionExampleScenario.node[21].veinsmobility  speed  ETV
vector 14517  IntersectionExampleScenario.node[21].veinsmobility  acceleration  ETV
vector 14518  IntersectionExampleScenario.node[21].veinsmobility  co2emission  ETV
vector 14521  IntersectionExampleScenario.node[22].veinsmobility  posx  ETV
vector 14522  IntersectionExampleScenario.node[22].veinsmobility  posy  ETV
vector 14523  IntersectionExampleScenario.node[22].veinsmobility  speed  ETV
vector 14524  IntersectionExampleScenario.node[22].veinsmobility  acceleration  ETV
vector 14525  IntersectionExampleScenario.node[22].veinsmobility  co2emission  ETV
vector 14528  IntersectionExampleScenario.node[23].veinsmobility  posx  ETV
vector 14529  IntersectionExampleScenario.node[23].veinsmobility  posy  ETV
vector 14530  IntersectionExampleScenario.node[23].veinsmobility  speed  ETV
vector 14531  IntersectionExampleScenario.node[23].veinsmobility  acceleration  ETV
vector 14532  IntersectionExampleScenario.node[23].veinsmobility  co2emission  ETV
14413	97628 5152 779 4943 27.5 67.25 160 0.973 11.200708441096 456.11731217093 2194.9940300787
14412	102780 4644 779 4943 27.5 67.25 160 -3.3932037353516 2.5 35.625318527222 173.48998468565
14411	107424 5080 764 4943 27.25 67.25 161 5.6500000953674 15.02499961853 2224.3122186661 31231.818810776
14410	112504 5300 749 4943 27 67.25 162 184.17810058594 735.33645629883 72998.976715088 37217910.571407
14409	117804 5330 749 4943 27 67.25 162 486.85000610352 486.85000610352 78869.70098877 38397714.407765
14385	123134 6462 150 5018 12.75 68 222 0.973 11.90022389248 603.41324356163 3101.369365711
14384	129596 5911 150 5018 12.75 68 222 -7.2641291618347 4 39.699392318726 485.24806203163
14383	135507 6187 143 5018 12.5 68 223 0 16 2204.2747706175 31714.977261645
14382	141694 7318 136 5018 12.25 68 224 236.35540771484 486.85000610352 100795.3527832 46429454.380737
14381	149012 7312 136 5018 12.25 68 224 483.14999389648 785.82187652588 123248.50827789 69822838.971054
14392	156324 6756 210 5159 14.75 69.5 220 0.973 11.54047740176 584.03066522839 2829.5168287807
14391	163080 6642 210 5159 14.75 69.5 220 -4.5 2.5 36.98334312439 422.43862948402
14390	169722 6872 201 5159 14.5 69.5 221 0 15.5 2280.3833825774 31435.8409873
14389	176594 7261 192 5159 14.25 69.5 222 486.85000610352 486.85000610352 108080.70135498 52619090.114344
14388	183855 7234 192 5159 14.25 69.5 222 238.28698730469 803.92188262939 116383.37444305 65630126.467149
vector 14535  IntersectionExampleScenario.node[24].veinsmobility  posx  ETV
vector 14536  IntersectionExampleScenario.node[24].veinsmobility  posy  ETV
vector 14537  IntersectionExampleScenario.node[24].veinsmobility  speed  ETV
vector 14538  IntersectionExampleScenario.node[24].veinsmobility  acceleration  ETV
vector 14539  IntersectionExampleScenario.node[24].veinsmobility  co2emission  ETV
14427	191490 5371 936 5426 29.75 72.5 172 0.973 11.200708441096 504.50954445338 2571.8938209277
14426	196861 5252 936 5426 29.75 72.5 172 -2.2389640808105 2.5 35.625318527222 238.94417792091
14425	202113 5522 917 5426 29.5 72.5 173 5.6500000953674 15.02499961853 2216.9223628044 29487.41030994
14424	207635 5737 898 5426 29.25 72.5 174 486.85000610352 486.85000610352 84711.901062012 41241989.549081
14423	213372 5715 898 5426 29.25 72.5 174 236.24468994141 785.82187652588 90772.177619934 51652557.409954
vector 14542  IntersectionExampleScenario.node[25].veinsmobility  posx  ETV
vector 14543  IntersectionExampleScenario.node[25].veinsmobility  posy  ETV
vector 14544  IntersectionExampleScenario.node[25].veinsmobility  speed  ETV
vector 14545  IntersectionExampleScenario.node[25].veinsmobility  acceleration  ETV
vector 14546  IntersectionExampleScenario.node[25].veinsmobility  co2emission  ETV
14441	219488 5138 1319 5630 34.5 74.75 162 0.973 11.200708441096 454.16705400756 2188.6086361389
14440	224626 4654 1319 5630 34.5 74.75 162 -2.3277816772461 2.5 36.643835067749 152.48646950664
14439	229280 5174 1296 5630 34.25 74.75 163 5.6500000953674 15.02499961853 2221.4377145767 30855.136927473
14438	234454 5412 1273 5630 34 74.75 164 486.85000610352 486.85000610352 79843.401000977 38871760.264651
14437	239866 5400 1273 5630 34 74.75 164 235.46502685547 785.82187652588 85409.091911316 48739302.971665
vector 14549  IntersectionExampleScenario.node[26].veinsmobility  posx  ETV
vector 14550  IntersectionExampleScenario.node[26].veinsmobility  posy  ETV
vector 14551  IntersectionExampleScenario.node[26].veinsmobility  speed  ETV
vector 14552  IntersectionExampleScenario.node[26].veinsmobility  acceleration  ETV
vector 14553  IntersectionExampleScenario.node[26].veinsmobility  co2emission  ETV
14448	245667 5516 1369 5935 35 78 173 0.973 11.36141391502 547.18909584058 2836.4127932503
14447	251183 5331 1369 5935 35 78 173 -4.5 2.5 37.15309715271 321.59679393235
14446	256514 5430 1344 5935 34.75 78 174 5.6500000953674 15.25 2285.7361106873 31283.095129247
14445	261944 5768 1319 5935 34.5 78 175 486.85000610352 734.40309143066 93626.664840698 51071870.186814
14444	267712 5761 1319 5935 34.5 78 175 486.72061157227 809.56562805176 101859.12253571 61467343.72111
14406	273473 6640 554 6084 23.25 79.5 226 0.973 11.450879080643 586.05236947008 2840.9890243342
14405	280113 6068 554 6084 23.25 79.5 226 -6.7711095809937 4 36.98334312439 456.08186531079
14404	286181 6414 541 6084 23 79.5 227 0 15.375 2209.3351569176 30725.483345122
14403	292595 7492 528 6084 22.75 79.5 228 483.14999389648 483.14999389648 110158.1986084 53222932.985295
14402	300087 7463 528 6084 22.75 79.5 228 184.17810058594 732.67367553711 103860.14793396 51532648.928091
14420	307550 6511 813 6153 28 80.25 210 0.973 11.450879080643 589.01380067152 2902.3852216991
14419	314061 6535 813 6153 28 80.25 210 -4.5 2.500000089407 40.038900375366 416.71028940245
14418	320596 6727 796 6153 27.75 80.25 211 0 15.719532012939 2206.7274679784 31201.507943749
14417	327323 6976 779 6153 27.5 80.25 212 483.14999389648 733.1326751709 110620.52593994 58767886.545543
14416	334299 6937 779 6153 27.5 80.25 212 184.17810058594 486.86685180664 87922.529418945 38397553.030561
vector 14556  IntersectionExampleScenario.node[27].veinsmobility  posx  ETV
vector 14557  IntersectionExampleScenario.node[27].veinsmobility  posy  ETV
vector 14558  IntersectionExampleScenario.node[27].veinsmobility  speed  ETV
vector 14559  IntersectionExampleScenario.node[27].veinsmobility  acceleration  ETV
vector 14560  IntersectionExampleScenario.node[27].veinsmobility  co2emission  ETV
14434	341637 5932 1168 6341 32.75 82.25 199 0.973 12.099024792222 570.71746036537 3116.1849820041
14433	347569 6285 1168 6341 32.75 82.25 199 -2.7460441589355 2.5 40.038900375366 321.77472379711
14432	353854 6364 1147 6341 32.5 82.25 200 1.3378003835678 16.27499961853 2208.2157270908 29582.782994386
14431	360218 6624 1126 6341 32.25 82.25 201 483.14999389648 733.36138916016 105316.34638977 56213671.900087
14430	366842 6607 1126 6341 32.25 82.25 201 184.17810058594 486.87347412109 81960.830413818 35255209.188512
14462	373449 5380 1870 6507 40 84 177 0.973 11.648172402475 535.43504621847 2940.4906617028
14461	378829 5248 1870 6507 40 84 177 -2.477897644043 2.5 39.529638290405 287.52808756288
14460	384077 5635 1843 6507 39.75 84 178 5.2663998603821 15.64999961853 2223.1512956619 29932.52235897
14459	389712 5906 1816 6507 39.5 84 179 483.14999389648 483.14999389648 86483.848907471 41784671.071789
14458	395618 5874 1816 6507 39.5 84 179 184.17810058594 734.69493103027 79607.535018921 39559051.701174
14476	401492 5455 2177 6737 42.75 86.5 176 0.973 11.648172402475 550.01319319775 3050.0341436074
14475	406947 5241 2177 6737 42.75 86.5 176 -4.5 2.5 38.511121749878 350.3391905253
14474	412188 5553 2150 6737 42.5 86.5 177 5.6500000953674 15.64999961853 2260.7345776558 30659.401885371
14473	417741 5868 2123 6737 42.25 86.5 178 483.14999389648 732.01968383789 94311.432159424 50959713.608412
14472	423609 5852 2123 6737 42.25 86.5 178 169.95465087891 486.87643432617 70328.168304443 29796559.031495
vector 14563  IntersectionExampleScenario.node[28].veinsmobility  posx  ETV
vector 14564  IntersectionExampleScenario.node[28].veinsmobility  posy  ETV
vector 14565  IntersectionExampleScenario.node[28].veinsmobility  speed  ETV
vector 14566  IntersectionExampleScenario.node[28].veinsmobility  acceleration  ETV
vector 14567  IntersectionExampleScenario.node[28].veinsmobility  co2emission  ETV
14469	429862 6010 1928 7027 40.5 90 199 0.973 11.810082123732 577.61160929289 3064.6579096063
14468	435872 5728 1928 7027 40.5 90 199 -7.1049880981445 4 39.699392318726 481.67750016164
14467	441600 5801 1899 7027 40.25 90 200 0 15.875 2181.0928168297 31227.217257269
14466	447401 6626 1870 7027 40 90 201 486.63604736328 785.82187652588 112026.11997223 64342787.454809
14465	454027 6565 1870 7027 40 90 201 236.12365722656 483.14999389648 89050.287902832 40452033.64638
vector 14570  IntersectionExampleScenario.node[29].veinsmobility  posx  ETV
vector 14571  IntersectionExampleScenario.node[29].veinsmobility  posy  ETV
vector 14572  IntersectionExampleScenario.node[29].veinsmobility  speed  ETV
vector 14573  IntersectionExampleScenario.node[29].veinsmobility  acceleration  ETV
vector 14574  IntersectionExampleScenario.node[29].veinsmobility  co2emission  ETV
14511	460993 4913 3826 7411 57 95 153 0.973 11.648172402475 474.925234236 2481.352005492
14510	465906 4498 3826 7411 57 95 153 -3.4319801330566 2.5 39.020376205444 194.78213760094
14509	470404 4838 3797 7411 56.75 95 154 5.6500000953674 15.64999961853 2217.0800542831 32596.395226667
14508	475242 5079 3768 7411 56.5 95 155 184.17810058594 733.17059326172 69494.619659424 35265485.924331
14507	480321 5114 3768 7411 56.5 95 155 486.85000610352 486.85000610352 75461.750946045 36738553.908664
vector 14577  IntersectionExampleScenario.node[30].veinsmobility  posx  ETV
vector 14578  IntersectionExampleScenario.node[30].veinsmobility  posy  ETV
vector 14579  IntersectionExampleScenario.node[30].veinsmobility  speed  ETV
vector 14580  IntersectionExampleScenario.node[30].veinsmobility  acceleration  ETV
vector 14581  IntersectionExampleScenario.node[30].veinsmobility  co2emission  ETV
vector 14584  IntersectionExampleScenario.node[31].veinsmobility  posx  ETV
vector 14585  IntersectionExampleScenario.node[31].veinsmobility  posy  ETV
vector 14586  IntersectionExampleScenario.node[31].veinsmobility  speed  ETV
vector 14587  IntersectionExampleScenario.node[31].veinsmobility  acceleration  ETV
vector 14588  IntersectionExampleScenario.node[31].veinsmobility  co2emission  ETV
14518	486237 5107 4111 7709 59.5 98.75 158 0.973 11.648172402475 477.74803356627 2475.3015603571
14517	491344 4656 4111 7709 59.5 98.75 158 -3.1967697143555 2.5 38.511121749878 188.03577099726
14516	496000 5013 4082 7709 59.25 98.75 159 5.6500000953674 15.64999961853 2282.0578985214 33400.982269508
14515	501013 5248 4053 7709 59 98.75 160 168.58435058594 733.9144744873 70597.355957031 35646217.9921
14514	506261 5280 4053 7709 59 98.75 160 486.85000610352 486.85000610352 77896.000976562 37923668.550879
vector 14591  IntersectionExampleScenario.node[32].veinsmobility  posx  ETV
vector 14592  IntersectionExampleScenario.node[32].veinsmobility  posy  ETV
vector 14598  IntersectionExampleScenario.node[33].veinsmobility  posx  ETV
vector 14599  IntersectionExampleScenario.node[33].veinsmobility  posy  ETV
vector 14593  IntersectionExampleScenario.node[32].veinsmobility  speed  ETV
vector 14594  IntersectionExampleScenario.node[32].veinsmobility  acceleration  ETV
vector 14595  IntersectionExampleScenario.node[32].veinsmobility  co2emission  ETV
vector 14600  IntersectionExampleScenario.node[33].veinsmobility  speed  ETV
vector 14601  IntersectionExampleScenario.node[33].veinsmobility  acceleration  ETV
vector 14602  IntersectionExampleScenario.node[33].veinsmobility  co2emission  ETV
vector 14605  IntersectionExampleScenario.node[34].veinsmobility  posx  ETV
vector 14606  IntersectionExampleScenario.node[34].veinsmobility  posy  ETV
vector 14607  IntersectionExampleScenario.node[34].veinsmobility  speed  ETV
vector 14608  IntersectionExampleScenario.node[34].veinsmobility  acceleration  ETV
vector 14609  IntersectionExampleScenario.node[34].veinsmobility  co2emission  ETV
14455	512744 7402 1816 8094 39.5 103.25 256 0.973 11.36141391502 625.80531430754 2883.1585442514
14454	520146 6805 1816 8094 39.5 103.25 256 -7.3515501022339 4 38.341367721558 478.76399498454
14453	526951 7002 1791 8094 39.25 103.25 257 0 15.298442840576 2241.3885650635 31422.974004198
14452	533953 8457 1766 8094 39 103.25 258 486.85000610352 733.04777526855 133789.04937744 70456874.021499
14451	542410 8518 1766 8094 39 103.25 258 486.63604736328 801.62203216553 141965.99652863 80484328.801916
vector 14612  IntersectionExampleScenario.node[35].veinsmobility  posx  ETV
vector 14613  IntersectionExampleScenario.node[35].veinsmobility  posy  ETV
vector 14614  IntersectionExampleScenario.node[35].veinsmobility  speed  ETV
vector 14615  IntersectionExampleScenario.node[35].veinsmobility  acceleration  ETV
vector 14616  IntersectionExampleScenario.node[35].veinsmobility  co2emission  ETV
14497	551329 6877 2849 8281 48.75 105 226 0.973 11.36141391502 589.51660715858 2852.1951205356
14496	558206 7350 2849 8281 48.75 105 226 -3.8204689025879 2.5 40.378400802612 336.07197156292
14495	565556 7253 2816 8281 48.5 105 227 0 15.800719261169 2067.8705488574 28070.336952489
14494	572809 7532 2783 8281 48.25 105 228 486.85000610352 732.14443969727 118888.96192932 63003767.251955
14493	580341 7511 2783 8281 48.25 105 228 486.8173828125 757.99687957764 124203.46058655 69148554.761194
vector 14619  IntersectionExampleScenario.node[36].veinsmobility  posx  ETV
vector 14620  IntersectionExampleScenario.node[36].veinsmobility  posy  ETV
vector 14621  IntersectionExampleScenario.node[36].veinsmobility  speed  ETV
vector 14622  IntersectionExampleScenario.node[36].veinsmobility  acceleration  ETV
vector 14623  IntersectionExampleScenario.node[36].veinsmobility  co2emission  ETV
14483	588253 7146 2721 8447 47.75 106.5 236 0.973 11.54047740176 619.24260398778 2877.6880741792
14482	595399 7474 2721 8447 47.75 106.5 236 -4.5 2.5 39.020376205444 421.3083897283
14481	602873 7675 2692 8447 47.5 106.5 237 0 15.5 2208.7109405734 28655.42763871
14480	610548 7882 2663 8447 47.25 106.5 238 486.85000610352 486.85000610352 115870.30145264 56411456.969432
14479	618430 7857 2663 8447 47.25 106.5 238 238.58233642578 785.82187652588 125535.25776672 70522302.444518
14490	626287 7603 2783 8766 48.25 109.25 245 0.973 11.90022389248 632.33938195193 3052.4744451623
14489	633890 7848 2783 8766 48.25 109.25 245 -4.5 2.5000009536743 39.699392318726 461.98943692485
14488	641738 7856 2752 8766 48 109.25 246 0 16 2304.5802478418 30128.716557069
14487	649594 8184 2721 8766 47.75 109.25 247 236.62042236328 486.85000610352 112004.89413452 51888679.528717
14486	657778 8163 2721 8766 47.75 109.25 247 483.14999389648 809.56562805176 140363.71733093 82241308.420129
14504	665941 6981 3741 9293 56.25 114.75 235 0.973 11.200708441096 587.01956340137 2724.5291294512
14503	672922 6265 3741 9293 56.25 114.75 235 -7.5492105484009 4 35.964826583862 468.45118037559
14502	679187 6704 3714 9293 56 114.75 236 0 15.02499961853 2206.3847739697 30287.269027981
14501	685891 7882 3686 9293 55.75 114.75 237 483.14999389648 483.14999389648 114506.54855347 55323838.234715
14500	693773 7847 3686 9293 55.75 114.75 237 184.17810058594 732.29058837891 108118.97944641 53588781.316633
14539	701620 5717 5380 9546 72 117.5 183 0.973 11.00486315618 512.53528086082 2543.1713891127
14538	707337 5606 5380 9546 72 117.5 183 -2.103687286377 2.5 34.097539901733 267.74564676432
14537	712943 5850 5357 9546 71.75 117.5 184 4.3143582344055 14.75 2206.3631429672 28215.776302985
14536	718793 6169 5334 9546 71.5 117.5 185 483.14999389648 732.82192993164 98358.766937256 53354767.027492
14535	724962 6139 5334 9546 71.5 117.5 185 184.17810058594 486.85000610352 74401.627685547 31793639.834184
vector 14626  IntersectionExampleScenario.node[37].veinsmobility  posx  ETV
vector 14627  IntersectionExampleScenario.node[37].veinsmobility  posy  ETV
vector 14628  IntersectionExampleScenario.node[37].veinsmobility  speed  ETV
vector 14633  IntersectionExampleScenario.node[38].veinsmobility  posx  ETV
vector 14634  IntersectionExampleScenario.node[38].veinsmobility  posy  ETV
vector 14629  IntersectionExampleScenario.node[37].veinsmobility  acceleration  ETV
vector 14630  IntersectionExampleScenario.node[37].veinsmobility  co2emission  ETV
vector 14635  IntersectionExampleScenario.node[38].veinsmobility  speed  ETV
vector 14636  IntersectionExampleScenario.node[38].veinsmobility  acceleration  ETV
vector 14637  IntersectionExampleScenario.node[38].veinsmobility  co2emission  ETV
vector 14640  IntersectionExampleScenario.node[39].veinsmobility  posx  ETV
vector 14641  IntersectionExampleScenario.node[39].veinsmobility  posy  ETV
vector 14647  IntersectionExampleScenario.node[40].veinsmobility  posx  ETV
vector 14648  IntersectionExampleScenario.node[40].veinsmobility  posy  ETV
vector 14642  IntersectionExampleScenario.node[39].veinsmobility  speed  ETV
vector 14649  IntersectionExampleScenario.node[40].veinsmobility  speed  ETV
vector 14643  IntersectionExampleScenario.node[39].veinsmobility  acceleration  ETV
vector 14644  IntersectionExampleScenario.node[39].veinsmobility  co2emission  ETV
vector 14650  IntersectionExampleScenario.node[40].veinsmobility  acceleration  ETV
vector 14651  IntersectionExampleScenario.node[40].veinsmobility  co2emission  ETV
14532	732705 7014 4761 10116 65.5 124.75 238 0.973 11.90022389248 636.85257297991 3211.1232010073
14531	739719 6060 4761 10116 65.5 124.75 238 -23.157417297363 4 41.057416915894 984.86646056813
14530	745779 6605 4734 10116 65.25 124.75 239 0 16 2220.8119192123 33036.307109816
14529	752384 8000 4707 10116 65 124.75 240 184.17810058594 734.86402893066 109652.82200623 54182354.902219
14528	760384 8026 4707 10116 65 124.75 240 486.85000610352 486.85000610352 116844.00146484 56885502.826318
14525	768410 7224 4682 10185 64.75 125.5 244 0.973 11.450879080643 607.36074130364 2851.1727310766
14524	775634 6388 4682 10185 64.75 125.5 244 -9.3259582519531 4 37.15309715271 549.77189948387
14523	782022 6833 4657 10185 64.5 125.5 245 0 15.375 2198.7683019638 30755.141771255
14522	788855 8216 4631 10185 64.25 125.5 246 483.14999389648 785.82187652588 134477.61092377 75604877.331977
14521	797071 8224 4631 10185 64.25 125.5 246 483.14999389648 732.66976928711 127381.34121704 67082505.733407
vector 14654  IntersectionExampleScenario.node[41].veinsmobility  posx  ETV
vector 14655  IntersectionExampleScenario.node[41].veinsmobility  posy  ETV
vector 14656  IntersectionExampleScenario.node[41].veinsmobility  speed  ETV
vector 14657  IntersectionExampleScenario.node[41].veinsmobility  acceleration  ETV
vector 14658  IntersectionExampleScenario.node[41].veinsmobility  co2emission  ETV
14553	805696 6256 5910 10439 77.75 128.25 203 0.973 11.200708441096 540.81093865465 2613.8326821106
14552	811952 6581 5910 10439 77.75 128.25 203 -2.0687103271484 2.5 35.795072555542 286.23011776984
14551	818533 6738 5885 10439 77.5 128.25 204 1.2310017347336 15.02499961853 2222.8947645426 28788.593512426
14550	825271 6856 5860 10439 77.25 128.25 205 184.17810058594 735.39521789551 92403.118057251 45979389.616014
14549	832127 6900 5860 10439 77.25 128.25 205 486.85000610352 486.85000610352 99804.251251221 48589700.330813
vector 14661  IntersectionExampleScenario.node[42].veinsmobility  posx  ETV
vector 14662  IntersectionExampleScenario.node[42].veinsmobility  posy  ETV
vector 14663  IntersectionExampleScenario.node[42].veinsmobility  speed  ETV
vector 14664  IntersectionExampleScenario.node[42].veinsmobility  acceleration  ETV
vector 14665  IntersectionExampleScenario.node[42].veinsmobility  co2emission  ETV
14574	839428 5398 7354 11050 94.25 134.5 162 0.973 11.200708441096 476.08751514023 2369.9055514619
14573	844826 4858 7354 11050 94.25 134.5 162 -3.5860557556152 2.5 35.795072555542 221.1589862443
14572	849684 5287 7335 11050 94 134.5 163 5.6500000953674 15.02499961853 2208.9732542038 30681.656625061
14571	854971 5577 7316 11050 93.75 134.5 164 184.17810058594 487.07064819336 65340.204406738 27846274.673014
14570	860548 5589 7316 11050 93.75 134.5 164 236.2294921875 486.85000610352 71047.395355225 31777439.103052
14581	866137 5034 7624 11134 97.75 135.5 152 0.87172897965044 12.553400930962 548.48097172416 3189.2799600623
14580	871171 4790 7624 11134 97.75 135.5 152 -3.5664463043213 2.5 45.218969345093 308.63077430744
14579	875961 4933 7603 11134 97.5 135.5 153 5.6500000953674 17.046909332275 2176.5624289513 32731.890205413
14578	880894 5250 7582 11134 97.25 135.5 154 486.79458618164 785.82187652588 88093.687858582 52079020.019407
14577	886144 5257 7582 11134 97.25 135.5 154 239.11688232422 483.14999389648 66790.013580322 29811876.838969
14546	891401 7566 5607 11354 74.5 138.25 256 0.973 11.648172402475 632.09902395208 3074.3593276968
14545	898967 6777 5607 11354 74.5 138.25 256 -26.858478546143 4 38.341367721558 1107.4922062804
14544	905744 7062 5584 11354 74.25 138.25 257 0 15.64999961853 2176.3841934204 30929.133927293
14543	912806 8657 5561 11354 74 138.25 258 486.85000610352 733.04777526855 133789.04937744 70456874.021499
14542	921463 8718 5561 11354 74 138.25 258 486.63604736328 785.82187652588 140539.54235077 78629762.145424
14560	930181 7127 6341 11425 82.25 139.25 229 0.973 11.648172402475 589.20945591774 2932.8161891479
14559	937308 7439 6341 11425 82.25 139.25 229 -3.7208235263824 2.5000002384186 38.511121749878 342.57155461056
14558	944747 7648 6316 11425 82 139.25 230 0 15.64999961853 2215.5453647207 29714.549333841
14557	952395 7845 6291 11425 81.75 139.25 231 486.85000610352 486.85000610352 112462.35140991 54752296.470331
14556	960240 7822 6291 11425 81.75 139.25 231 236.76013183594 785.82187652588 119856.05649567 66339402.925599
vector 14668  IntersectionExampleScenario.node[43].veinsmobility  posx  ETV
vector 14669  IntersectionExampleScenario.node[43].veinsmobility  posy  ETV
vector 14670  IntersectionExampleScenario.node[43].veinsmobility  speed  ETV
vector 14671  IntersectionExampleScenario.node[43].veinsmobility  acceleration  ETV
vector 14672  IntersectionExampleScenario.node[43].veinsmobility  co2emission  ETV
14595	968463 5570 7975 11757 102 143.75 168 0.973 11.00486315618 511.35244029488 2752.8873934434
14594	974033 5264 7975 11757 102 143.75 168 -3.4302368164062 2.5 34.606801986694 270.60197404086
14593	979297 5550 7952 11757 101.75 143.75 169 5.6500000953674 14.75 2213.9654569626 29719.918265261
14592	984847 5841 7931 11757 101.5 143.75 170 235.12237548828 486.85000610352 73716.296661377 33003467.556505
14591	990688 5854 7931 11757 101.5 143.75 170 483.14999389648 785.82187652588 97091.040115356 57292454.262667
vector 14675  IntersectionExampleScenario.node[44].veinsmobility  posx  ETV
vector 14676  IntersectionExampleScenario.node[44].veinsmobility  posy  ETV
vector 14677  IntersectionExampleScenario.node[44].veinsmobility  speed  ETV
vector 14678  IntersectionExampleScenario.node[44].veinsmobility  acceleration  ETV
vector 14679  IntersectionExampleScenario.node[44].veinsmobility  co2emission  ETV
vector 14682  IntersectionExampleScenario.node[45].veinsmobility  posx  ETV
vector 14683  IntersectionExampleScenario.node[45].veinsmobility  posy  ETV
vector 14684  IntersectionExampleScenario.node[45].veinsmobility  speed  ETV
vector 14685  IntersectionExampleScenario.node[45].veinsmobility  acceleration  ETV
vector 14686  IntersectionExampleScenario.node[45].veinsmobility  co2emission  ETV
14567	997344 7285 7027 12165 90 149.5 239 0.973 11.450879080643 601.71442240935 2864.7678670658
14566	1004629 6551 7027 12165 90 149.5 239 -7.457010269165 4 37.32285118103 472.71634007258
14565	1011180 6981 7006 12165 89.75 149.5 240 0 15.375 2213.2772502899 30957.844004183
14564	1018161 8257 6985 12165 89.5 149.5 241 483.14999389648 483.14999389648 116439.14852905 56257573.901123
14563	1026418 8226 6985 12165 89.5 149.5 241 184.17810058594 733.81198120117 110067.68792725 54501813.264034
14588	1034644 6450 7709 12216 98.75 150.25 207 0.973 12.099024792222 579.54827014146 3156.2150217349
14587	1041094 6731 7709 12216 98.75 150.25 207 -3.7253410816193 2.5 41.227170944214 347.1922948223
14586	1047825 6866 7688 12216 98.5 150.25 208 0 16.27499961853 2180.0871031173 29679.317491864
14585	1054691 7205 7666 12216 98.25 150.25 209 238.26843261719 483.14999389648 93215.825439453 42546591.362193
14584	1061896 7168 7666 12216 98.25 150.25 209 184.17810058594 483.29263305664 85880.487884521 37127558.275789
vector 14689  IntersectionExampleScenario.node[46].veinsmobility  posx  ETV
vector 14690  IntersectionExampleScenario.node[46].veinsmobility  posy  ETV
vector 14691  IntersectionExampleScenario.node[46].veinsmobility  speed  ETV
vector 14692  IntersectionExampleScenario.node[46].veinsmobility  acceleration  ETV
vector 14693  IntersectionExampleScenario.node[46].veinsmobility  co2emission  ETV
14609	1069465 6473 8094 12444 103.25 153.5 202 0.973 11.450879080643 548.83877381943 2745.8681048963
14608	1075938 6580 8094 12444 103.25 153.5 202 -3.2274436950684 2.5000009536743 36.813589096069 320.43381279346
14607	1082518 6728 8069 12444 103 153.5 203 2.2656390666962 15.375 2216.2450242043 28246.900262699
14606	1089246 7052 8044 12444 102.75 153.5 204 483.14999389648 735.31971740723 107319.36036682 57554559.869721
14605	1096298 7027 8044 12444 102.75 153.5 204 184.17810058594 486.85000610352 82834.346679688 35502874.761545
14623	1103325 6166 8447 12478 106.5 154 191 0.973 11.54047740176 572.19978133865 2908.063971283
14622	1109491 6015 8447 12478 106.5 154 191 -4.5 2.5 41.057416915894 390.88632417285
14621	1115506 6434 8418 12478 106.25 154 192 0.96084642410278 15.937397003174 2267.2488143444 31176.503487901
14620	1121940 6683 8389 12478 106 154 193 483.14999389648 483.14999389648 93247.948822021 45052745.904219
14619	1128623 6640 8389 12478 106 154 193 172.9296875 733.7972869873 85007.077285767 41746627.688776
vector 14696  IntersectionExampleScenario.node[47].veinsmobility  posx  ETV
vector 14697  IntersectionExampleScenario.node[47].veinsmobility  posy  ETV
vector 14698  IntersectionExampleScenario.node[47].veinsmobility  speed  ETV
vector 14699  IntersectionExampleScenario.node[47].veinsmobility  acceleration  ETV
vector 14700  IntersectionExampleScenario.node[47].veinsmobility  co2emission  ETV
14602	1135664 7209 7998 12921 102.25 160.25 233 0.973 11.648172402475 604.48391236005 2989.6766155118
14601	1142873 6597 7998 12921 102.25 160.25 233 -7.092942237854 4 38.341367721558 482.03537292727
14600	1149470 6919 7975 12921 102 160.25 234 0 15.64999961853 2212.6930663586 31413.159398971
14599	1156389 8106 7952 12921 101.75 160.25 235 184.17810058594 733.41819763184 107222.85169983 53092387.008175
14598	1164495 8138 7952 12921 101.75 160.25 235 486.85000610352 486.85000610352 114409.75143433 55700388.184103
14616	1172633 7631 8173 13011 104 161.75 232 0.973 11.648172402475 626.38238490452 3037.1298327413
14615	1180264 7459 8173 13011 104 161.75 232 -4.5 2.5 40.208654403687 449.75177223513
14614	1187723 7806 8146 13011 103.75 161.75 233 0 15.752736091614 2292.6490569068 32936.817946116
14613	1195529 8066 8119 13011 103.5 161.75 234 164.94219970703 733.12867736816 104560.24221802 51238741.99706
14612	1203595 8111 8119 13011 103.5 161.75 234 486.85000610352 486.85000610352 113922.90142822 55463365.25566
14630	1211706 5319 9993 13101 123.25 163.25 161 0.973 12.553400930962 548.97633464742 3327.2910869553
14629	1217025 5085 9993 13101 123.25 163.25 161 -2.8244171142578 2.5 42.754949569702 288.00565465366
14628	1222110 5437 9974 13101 123 163.25 162 5.6500000953674 16.89999961853 2214.3630614281 31956.250000185
14627	1227547 5664 9955 13101 122.75 163.25 163 184.17810058594 732.66812133789 72517.552474976 36206155.226597
14626	1233211 5702 9955 13101 122.75 163.25 163 486.85000610352 486.85000610352 79356.550994873 38634737.336208
vector 14703  IntersectionExampleScenario.node[48].veinsmobility  posx  ETV
vector 14704  IntersectionExampleScenario.node[48].veinsmobility  posy  ETV
vector 14705  IntersectionExampleScenario.node[48].veinsmobility  speed  ETV
vector 14706  IntersectionExampleScenario.node[48].veinsmobility  acceleration  ETV
vector 14707  IntersectionExampleScenario.node[48].veinsmobility  co2emission  ETV
14665	1239314 5384 10535 13458 129.25 168.75 159 0.97223939240464 11.810082123732 507.90446564047 2852.4636117653
14664	1244698 5064 10535 13458 129.25 168.75 159 -3.3224430084229 2.5 38.680875778198 281.07750478256
14663	1249762 5262 10510 13458 129 168.75 160 5.6500000953674 15.875 2180.3963141441 31117.975677723
14662	1255024 5632 10485 13458 128.75 168.75 161 486.73587036133 785.82187652588 92162.609840393 54496323.186597
14661	1260656 5632 10485 13458 128.75 168.75 161 237.83447265625 483.14999389648 69706.979278564 31091660.187102
14644	1266288 6326 10116 13682 124.75 173.25 195 0.973 11.648172402475 566.66895261113 2932.3076562502
14643	1272614 5855 10116 13682 124.75 173.25 195 -7.7750473022461 4 38.511121749878 476.5267975717
14642	1278469 6178 10093 13682 124.5 173.25 196 0 15.64999961853 2201.8212580681 31157.430440079
14641	1284647 6891 10070 13682 124.25 173.25 197 236.75640869141 486.85000610352 87520.49597168 39922981.156446
14640	1291538 6884 10070 13682 124.25 173.25 197 483.14999389648 785.82187652588 109910.3070755 63255137.710865
14658	1298422 6562 10324 13797 127 176.25 198 0.973 11.450879080643 559.03962987522 2766.9261975588
14657	1304984 6420 10324 13797 127 176.25 198 -4.5 2.5 36.98334312439 415.16195336658
14656	1311404 6763 10301 13797 126.75 176.25 199 0 15.375 2278.0657227617 31193.197769189
14655	1318167 6991 10277 13797 126.5 176.25 200 235.05157470703 486.85000610352 88668.071655273 40393284.371083
14654	1325158 6980 10277 13797 126.5 176.25 200 482.99572753906 802.70781707764 113319.46453857 66411136.051693
vector 14710  IntersectionExampleScenario.node[49].veinsmobility  posx  ETV
vector 14711  IntersectionExampleScenario.node[49].veinsmobility  posy  ETV
vector 14712  IntersectionExampleScenario.node[49].veinsmobility  speed  ETV
vector 14713  IntersectionExampleScenario.node[49].veinsmobility  acceleration  ETV
vector 14714  IntersectionExampleScenario.node[49].veinsmobility  co2emission  ETV
14637	1332539 7352 10032 13971 123.75 183.25 239 0.973 12.553400930962 650.95375322921 3590.4961085087
14636	1339891 6754 10032 13971 123.75 183.25 239 -7.8373866081238 4 42.924703598022 556.00399160772
14635	1346645 6984 10013 13971 123.5 183.25 240 0 16.89999961853 2211.5808385611 33446.22129962
14634	1353629 8435 9993 13971 123.25 183.25 241 483.14999389648 483.14999389648 116439.14852905 56257573.901123
14633	1362064 8408 9993 13971 123.25 183.25 241 184.17810058594 732.97071838379 109971.53286743 54143316.495172
vector 14717  IntersectionExampleScenario.node[50].veinsmobility  posx  ETV
vector 14718  IntersectionExampleScenario.node[50].veinsmobility  posy  ETV
vector 14719  IntersectionExampleScenario.node[50].veinsmobility  speed  ETV
vector 14720  IntersectionExampleScenario.node[50].veinsmobility  acceleration  ETV
vector 14721  IntersectionExampleScenario.node[50].veinsmobility  co2emission  ETV
14651	1370873 8053 10116 14027 124.75 185.75 245 0.97223939240464 11.810082123732 626.20651649026 3090.9754188775
14650	1378926 7907 10116 14027 124.75 185.75 245 -4.5 2.5 38.680875778198 448.46739424137
14649	1386833 8011 10093 14027 124.5 185.75 246 0 15.875 2279.3226433108 31823.633904412
14648	1394844 8644 10070 14027 124.25 185.75 247 235.24951171875 483.14999389648 111099.79022217 51055683.862995
14647	1403488 8606 10070 14027 124.25 185.75 247 162.00311279297 483.14999389648 102066.89880371 44568707.34649
vector 14724  IntersectionExampleScenario.node[51].veinsmobility  posx  ETV
vector 14725  IntersectionExampleScenario.node[51].veinsmobility  posy  ETV
vector 14731  IntersectionExampleScenario.node[52].veinsmobility  posx  ETV
vector 14732  IntersectionExampleScenario.node[52].veinsmobility  posy  ETV
vector 14726  IntersectionExampleScenario.node[51].veinsmobility  speed  ETV
vector 14733  IntersectionExampleScenario.node[52].veinsmobility  speed  ETV
vector 14727  IntersectionExampleScenario.node[51].veinsmobility  acceleration  ETV
vector 14728  IntersectionExampleScenario.node[51].veinsmobility  co2emission  ETV
vector 14734  IntersectionExampleScenario.node[52].veinsmobility  acceleration  ETV
vector 14735  IntersectionExampleScenario.node[52].veinsmobility  co2emission  ETV
14672	1412896 6099 11548 14099 141 187.75 188 0.973 11.648172402475 546.39359058579 2887.7022916811
14671	1418995 6119 11548 14099 141 187.75 188 -2.1045875549316 2.5000019073486 38.341367721558 307.46886962167
14670	1425114 6342 11529 14099 140.75 187.75 189 2.7430753707886 15.64999961853 2216.7110288143 29431.623638069
14669	1431456 6644 11510 14099 140.5 187.75 190 483.14999389648 734.63781738281 100298.74874878 53991324.007407
14668	1438100 6603 11510 14099 140.5 187.75 190 184.17810058594 486.85000610352 76913.738372803 32965861.001046
vector 14738  IntersectionExampleScenario.node[53].veinsmobility  posx  ETV
vector 14739  IntersectionExampleScenario.node[53].veinsmobility  posy  ETV
vector 14740  IntersectionExampleScenario.node[53].veinsmobility  speed  ETV
vector 14741  IntersectionExampleScenario.node[53].veinsmobility  acceleration  ETV
vector 14742  IntersectionExampleScenario.node[53].veinsmobility  co2emission  ETV
14679	1445104 5756 11967 14236 146.75 190.5 176 0.973 11.810082123732 562.4186545608 3238.4332811473
14678	1450860 5750 11967 14236 146.75 190.5 176 -3.3186645507812 2.5 39.359884262085 370.35435889385
14677	1456610 5861 11950 14236 146.5 190.5 177 5.6500000953674 15.875 2188.1303157806 29337.810418722
14676	1462471 6219 11932 14236 146.25 190.5 178 235.86517333984 483.14999389648 77873.397888184 35032095.258356
14675	1468690 6198 11932 14236 146.25 190.5 178 184.17810058594 483.27291870117 71146.79864502 30185869.196378
vector 14745  IntersectionExampleScenario.node[54].veinsmobility  posx  ETV
vector 14746  IntersectionExampleScenario.node[54].veinsmobility  posy  ETV
vector 14747  IntersectionExampleScenario.node[54].veinsmobility  speed  ETV
vector 14748  IntersectionExampleScenario.node[54].veinsmobility  acceleration  ETV
vector 14749  IntersectionExampleScenario.node[54].veinsmobility  co2emission  ETV
vector 14752  IntersectionExampleScenario.node[55].veinsmobility  posx  ETV
vector 14753  IntersectionExampleScenario.node[55].veinsmobility  posy  ETV
vector 14754  IntersectionExampleScenario.node[55].veinsmobility  speed  ETV
vector 14755  IntersectionExampleScenario.node[55].veinsmobility  acceleration  ETV
vector 14756  IntersectionExampleScenario.node[55].veinsmobility  co2emission  ETV
14700	1475690 5204 12550 14440 155 194 157 0.97223939240464 11.648172402475 503.07119113652 2934.2202206593
14699	1480894 5031 12550 14440 155 194 157 -3.3783798217773 2.5 38.680875778198 255.35715171806
14698	1485925 5243 12531 14440 154.75 194 158 5.6500000953674 15.64999961853 2208.7238073349 31811.578674997
14697	1491168 5544 12512 14440 154.5 194 159 483.14999389648 733.33857727051 85199.879714966 46608679.89222
14696	1496712 5539 12512 14440 154.5 194 159 184.17810058594 486.85000610352 63272.218200684 26951888.358
vector 14759  IntersectionExampleScenario.node[56].veinsmobility  posx  ETV
vector 14760  IntersectionExampleScenario.node[56].veinsmobility  posy  ETV
vector 14761  IntersectionExampleScenario.node[56].veinsmobility  speed  ETV
vector 14762  IntersectionExampleScenario.node[56].veinsmobility  acceleration  ETV
vector 14763  IntersectionExampleScenario.node[56].veinsmobility  co2emission  ETV
14686	1502652 6295 12022 14550 147.5 195.5 193 0.973 11.450879080643 554.24103746452 2792.0093204928
14685	1508947 5793 12022 14550 147.5 195.5 193 -8.4870567321777 4 37.15309715271 478.32449572734
14684	1514740 6165 12003 14550 147.25 195.5 194 0 15.375 2198.746417284 30558.207844133
14683	1520905 6812 11984 14550 147 195.5 195 483.14999389648 785.82187652588 109087.9882431 62965631.023017
14682	1527717 6817 11984 14550 147 195.5 195 483.14999389648 732.66976928711 102740.69152832 55177375.986696
14693	1534534 5966 12339 14664 152 197 181 0.973 11.450879080643 558.27350658106 2844.1965299134
14692	1540500 5804 12339 14664 152 197 181 -4.4547157287598 2.5 40.208654403687 395.57792246326
14691	1546304 6162 12320 14664 151.75 197 182 0 15.742202758789 2207.8881440274 31278.446206351
14690	1552466 6390 12301 14664 151.5 197 183 482.9479675293 785.82187652588 103055.06668854 59882965.894575
14689	1558856 6400 12301 14664 151.5 197 183 483.14999389648 733.50946044922 96613.355484009 52004987.498006
vector 14766  IntersectionExampleScenario.node[57].veinsmobility  posx  ETV
vector 14767  IntersectionExampleScenario.node[57].veinsmobility  posy  ETV
vector 14768  IntersectionExampleScenario.node[57].veinsmobility  speed  ETV
vector 14769  IntersectionExampleScenario.node[57].veinsmobility  acceleration  ETV
vector 14770  IntersectionExampleScenario.node[57].veinsmobility  co2emission  ETV
vector 14773  IntersectionExampleScenario.node[58].veinsmobility  posx  ETV
vector 14774  IntersectionExampleScenario.node[58].veinsmobility  posy  ETV
vector 14775  IntersectionExampleScenario.node[58].veinsmobility  speed  ETV
vector 14776  IntersectionExampleScenario.node[58].veinsmobility  acceleration  ETV
vector 14777  IntersectionExampleScenario.node[58].veinsmobility  co2emission  ETV
vector 14780  IntersectionExampleScenario.node[59].veinsmobility  posx  ETV
vector 14781  IntersectionExampleScenario.node[59].veinsmobility  posy  ETV
vector 14782  IntersectionExampleScenario.node[59].veinsmobility  speed  ETV
vector 14783  IntersectionExampleScenario.node[59].veinsmobility  acceleration  ETV
vector 14784  IntersectionExampleScenario.node[59].veinsmobility  co2emission  ETV
vector 14787  IntersectionExampleScenario.node[60].veinsmobility  posx  ETV
vector 14788  IntersectionExampleScenario.node[60].veinsmobility  posy  ETV
vector 14789  IntersectionExampleScenario.node[60].veinsmobility  speed  ETV
vector 14790  IntersectionExampleScenario.node[60].veinsmobility  acceleration  ETV
vector 14791  IntersectionExampleScenario.node[60].veinsmobility  co2emission  ETV
vector 14794  IntersectionExampleScenario.node[61].veinsmobility  posx  ETV
vector 14795  IntersectionExampleScenario.node[61].veinsmobility  posy  ETV
vector 14796  IntersectionExampleScenario.node[61].veinsmobility  speed  ETV
vector 14797  IntersectionExampleScenario.node[61].veinsmobility  acceleration  ETV
vector 14798  IntersectionExampleScenario.node[61].veinsmobility  co2emission  ETV
vector 14801  IntersectionExampleScenario.node[62].veinsmobility  posx  ETV
vector 14802  IntersectionExampleScenario.node[62].veinsmobility  posy  ETV
vector 14803  IntersectionExampleScenario.node[62].veinsmobility  speed  ETV
vector 14804  IntersectionExampleScenario.node[62].veinsmobility  acceleration  ETV
vector 14805  IntersectionExampleScenario.node[62].veinsmobility  co2emission  ETV
14707	1567662 6760 13240 16605 165.5 218.75 214 0.96333723109819 12.099024792222 600.9767790223 3240.800809436
14706	1574422 6359 13240 16605 165.5 218.75 214 -6.7176465988159 4 40.208654403687 485.26721124914
14705	1580781 6556 13223 16605 165.25 218.75 215 0 16.27499961853 2208.9460535049 32116.441499419
14704	1587337 7560 13206 16605 165 218.75 216 483.14999389648 483.14999389648 104360.39868164 50421725.986069
14703	1594897 7525 13206 16605 165 218.75 216 184.17810058594 732.22775268555 98155.652954102 48657357.830118
vector 14808  IntersectionExampleScenario.node[63].veinsmobility  posx  ETV
vector 14809  IntersectionExampleScenario.node[63].veinsmobility  posy  ETV
vector 14815  IntersectionExampleScenario.node[64].veinsmobility  posx  ETV
vector 14816  IntersectionExampleScenario.node[64].veinsmobility  posy  ETV
vector 14810  IntersectionExampleScenario.node[63].veinsmobility  speed  ETV
vector 14822  IntersectionExampleScenario.node[65].veinsmobility  posx  ETV
vector 14823  IntersectionExampleScenario.node[65].veinsmobility  posy  ETV
vector 14811  IntersectionExampleScenario.node[63].veinsmobility  acceleration  ETV
vector 14812  IntersectionExampleScenario.node[63].veinsmobility  co2emission  ETV
vector 14817  IntersectionExampleScenario.node[64].veinsmobility  speed  ETV
vector 14818  IntersectionExampleScenario.node[64].veinsmobility  acceleration  ETV
vector 14819  IntersectionExampleScenario.node[64].veinsmobility  co2emission  ETV
vector 14824  IntersectionExampleScenario.node[65].veinsmobility  speed  ETV
vector 14829  IntersectionExampleScenario.node[66].veinsmobility  posx  ETV
vector 14830  IntersectionExampleScenario.node[66].veinsmobility  posy  ETV
vector 14825  IntersectionExampleScenario.node[65].veinsmobility  acceleration  ETV
vector 14826  IntersectionExampleScenario.node[65].veinsmobility  co2emission  ETV
vector 14831  IntersectionExampleScenario.node[66].veinsmobility  speed  ETV
vector 14832  IntersectionExampleScenario.node[66].veinsmobility  acceleration  ETV
vector 14833  IntersectionExampleScenario.node[66].veinsmobility  co2emission  ETV
vector 14836  IntersectionExampleScenario.node[67].veinsmobility  posx  ETV
vector 14837  IntersectionExampleScenario.node[67].veinsmobility  posy  ETV
vector 14843  IntersectionExampleScenario.node[68].veinsmobility  posx  ETV
vector 14844  IntersectionExampleScenario.node[68].veinsmobility  posy  ETV
vector 14838  IntersectionExampleScenario.node[67].veinsmobility  speed  ETV
vector 14839  IntersectionExampleScenario.node[67].veinsmobility  acceleration  ETV
vector 14840  IntersectionExampleScenario.node[67].veinsmobility  co2emission  ETV
vector 14845  IntersectionExampleScenario.node[68].veinsmobility  speed  ETV
vector 14846  IntersectionExampleScenario.node[68].veinsmobility  acceleration  ETV
vector 14847  IntersectionExampleScenario.node[68].veinsmobility  co2emission  ETV
vector 14850  IntersectionExampleScenario.node[69].veinsmobility  posx  ETV
vector 14851  IntersectionExampleScenario.node[69].veinsmobility  posy  ETV
vector 14852  IntersectionExampleScenario.node[69].veinsmobility  speed  ETV
vector 14853  IntersectionExampleScenario.node[69].veinsmobility  acceleration  ETV
vector 14854  IntersectionExampleScenario.node[69].veinsmobility  co2emission  ETV
14721	1605229 5506 14020 17361 185.5 225.75 162 0.973 11.36141391502 504.08989767171 2699.433605485
14720	1610735 5299 14020 17361 185.5 225.75 162 -3.5839405059814 2.5 36.98334312439 285.19196654467
14719	1616034 5382 14013 17361 185.25 225.75 163 5.6500000953674 15.25 2184.2463803291 30498.73800161
14718	1621416 5738 14006 17361 185 225.75 164 236.67767333984 483.14999389648 70862.445007324 31563530.58691
14717	1627154 5712 14006 17361 185 225.75 164 184.17810058594 483.1741027832 65205.573669434 27688954.599892
vector 14857  IntersectionExampleScenario.node[70].veinsmobility  posx  ETV
vector 14858  IntersectionExampleScenario.node[70].veinsmobility  posy  ETV
vector 14859  IntersectionExampleScenario.node[70].veinsmobility  speed  ETV
vector 14860  IntersectionExampleScenario.node[70].veinsmobility  acceleration  ETV
vector 14861  IntersectionExampleScenario.node[70].veinsmobility  co2emission  ETV
vector 14864  IntersectionExampleScenario.node[71].veinsmobility  posx  ETV
vector 14865  IntersectionExampleScenario.node[71].veinsmobility  posy  ETV
vector 14866  IntersectionExampleScenario.node[71].veinsmobility  speed  ETV
vector 14867  IntersectionExampleScenario.node[71].veinsmobility  acceleration  ETV
vector 14868  IntersectionExampleScenario.node[71].veinsmobility  co2emission  ETV
14714	1633668 6233 13951 17896 182.25 230 192 0.973 11.90022389248 575.81999561788 3079.2420570688
14713	1639901 5708 13951 17896 182.25 230 192 -6.9388580322266 4 39.869146347046 483.42859168984
14712	1645609 6070 13946 17896 182 230 193 0 16 2206.8656001091 31827.855714461
14711	1651679 6766 13941 17896 181.75 230 194 184.17810058594 486.85000610352 79903.756347656 34826313.343212
14710	1658445 6784 13941 17896 181.75 230 194 235.83721923828 486.85000610352 86176.865753174 39311002.15438
14735	1665229 5817 14077 18094 187.25 231.5 178 0.973 11.810082123732 546.77600393358 2999.1346629121
14734	1671046 5819 14077 18094 187.25 231.5 178 -3.2363624572754 2.5 40.038900375366 341.00825590493
14733	1676865 5934 14066 18094 187 231.5 179 1.7470009326935 15.875 2179.6252963543 30322.086248014
14732	1682799 6278 14055 18094 186.75 231.5 180 184.17810058594 483.14999389648 72717.07244873 31160532.666323
14731	1689077 6288 14055 18094 186.75 231.5 180 486.85000610352 731.8705291748 95535.246505737 51643350.187378
vector 14871  IntersectionExampleScenario.node[72].veinsmobility  posx  ETV
vector 14872  IntersectionExampleScenario.node[72].veinsmobility  posy  ETV
vector 14873  IntersectionExampleScenario.node[72].veinsmobility  speed  ETV
vector 14874  IntersectionExampleScenario.node[72].veinsmobility  acceleration  ETV
vector 14875  IntersectionExampleScenario.node[72].veinsmobility  co2emission  ETV
14728	1695766 6058 14077 18298 187.25 233 184 0.973 11.648172402475 554.47299316439 2903.6528584498
14727	1701824 5561 14077 18298 187.25 233 184 -7.03919506073 4 38.341367721558 495.18053253551
14726	1707385 5937 14066 18298 187 233 185 0 15.64999961853 2174.9882180691 30600.363183401
14725	1713322 6501 14055 18298 186.75 233 186 486.75677490234 785.82187652588 104688.52983856 60778546.536117
14724	1719823 6508 14055 18298 186.75 233 186 238.21868896484 483.14999389648 81769.408050537 36912954.789174
14756	1726331 5509 14423 18543 193.75 234.75 165 0.973 11.200708441096 510.19461670883 2875.1037875843
14755	1731840 5278 14423 18543 193.75 234.75 165 -3.7528305053711 2.5 35.625318527222 263.14816438861
14754	1737118 5589 14406 18543 193.5 234.75 166 5.6500000953674 15.02499961853 2223.4590854645 30410.808357711
14753	1742707 5818 14389 18543 193.25 234.75 167 184.17810058594 735.37384033203 75004.340988159 38024526.016128
14752	1748525 5847 14389 18543 193.25 234.75 167 486.85000610352 486.85000610352 81303.951019287 39582829.04998
14763	1754372 5653 14512 18893 195 237.25 170 0.973 11.36141391502 529.35432973494 2946.0066167636
14762	1760025 5512 14512 18893 195 237.25 170 -4.0510101318359 2.5 36.474081039429 313.18503684626
14761	1765537 5667 14493 18893 194.75 237.25 171 5.6500000953674 15.25 2178.3237690926 29119.300716011
14760	1771204 6011 14474 18893 194.5 237.25 172 486.84878540039 785.82187652588 98246.295249939 57895425.42789
14759	1777215 6004 14474 18893 194.5 237.25 172 237.8564453125 483.14999389648 74738.834014893 33433632.784981
vector 14878  IntersectionExampleScenario.node[73].veinsmobility  posx  ETV
vector 14879  IntersectionExampleScenario.node[73].veinsmobility  posy  ETV
vector 14880  IntersectionExampleScenario.node[73].veinsmobility  speed  ETV
vector 14885  IntersectionExampleScenario.node[74].veinsmobility  posx  ETV
vector 14886  IntersectionExampleScenario.node[74].veinsmobility  posy  ETV
vector 14881  IntersectionExampleScenario.node[73].veinsmobility  acceleration  ETV
vector 14882  IntersectionExampleScenario.node[73].veinsmobility  co2emission  ETV
vector 14887  IntersectionExampleScenario.node[74].veinsmobility  speed  ETV
vector 14888  IntersectionExampleScenario.node[74].veinsmobility  acceleration  ETV
vector 14889  IntersectionExampleScenario.node[74].veinsmobility  co2emission  ETV
14770	1784021 5355 15086 19546 202.5 241.75 158 0.973 11.648172402475 493.07944500079 2730.6173170616
14769	1789376 5173 15086 19546 202.5 241.75 158 -3.5707321166992 2.5 37.832105636597 246.72481061894
14768	1794549 5277 15065 19546 202.25 241.75 159 5.6500000953674 15.64999961853 2211.7787179947 31657.903337353
14767	1799826 5579 15044 19546 202 241.75 160 184.17810058594 486.85855102539 63728.08380127 27165459.933204
14766	1805405 5586 15044 19546 202 241.75 160 235.79675292969 486.85000610352 69352.236938477 31034030.289163
vector 14892  IntersectionExampleScenario.node[75].veinsmobility  posx  ETV
vector 14893  IntersectionExampleScenario.node[75].veinsmobility  posy  ETV
vector 14894  IntersectionExampleScenario.node[75].veinsmobility  speed  ETV
vector 14899  IntersectionExampleScenario.node[76].veinsmobility  posx  ETV
vector 14900  IntersectionExampleScenario.node[76].veinsmobility  posy  ETV
vector 14895  IntersectionExampleScenario.node[75].veinsmobility  acceleration  ETV
vector 14896  IntersectionExampleScenario.node[75].veinsmobility  co2emission  ETV
vector 14901  IntersectionExampleScenario.node[76].veinsmobility  speed  ETV
vector 14902  IntersectionExampleScenario.node[76].veinsmobility  acceleration  ETV
vector 14903  IntersectionExampleScenario.node[76].veinsmobility  co2emission  ETV
14742	1811793 8154 14158 21095 189 254.75 264 0.973 11.200708441096 618.02780535623 2746.4324120839
14741	1819947 7416 14158 21095 189 254.75 264 -37.782417297363 4 35.625318527222 1735.6727512395
14740	1827363 7653 14145 21095 188.75 254.75 265 0 15.02499961853 2225.9818019867 30747.854681179
14739	1835016 9302 14132 21095 188.5 254.75 266 483.14999389648 735.54794311523 137455.09086609 72235286.719788
14738	1844318 9280 14132 21095 188.5 254.75 266 174.53436279297 486.85000610352 112580.27133179 49982218.780401
vector 14906  IntersectionExampleScenario.node[77].veinsmobility  posx  ETV
vector 14907  IntersectionExampleScenario.node[77].veinsmobility  posy  ETV
vector 14908  IntersectionExampleScenario.node[77].veinsmobility  speed  ETV
vector 14909  IntersectionExampleScenario.node[77].veinsmobility  acceleration  ETV
vector 14910  IntersectionExampleScenario.node[77].veinsmobility  co2emission  ETV
14749	1853999 8558 14344 21254 192.5 256.75 258 0.973 11.200708441096 629.86268782604 2783.6322198475
14748	1862557 8351 14344 21254 192.5 256.75 258 -4.5 2.5 37.32285118103 421.53417195967
14747	1870908 8694 14329 21254 192.25 256.75 259 0 15.028690338135 2260.3716331404 30965.708237928
14746	1879602 9087 14314 21254 192 256.75 260 483.14999389648 732.50421142578 134123.64378357 70323504.462483
14745	1888689 9049 14314 21254 192 256.75 260 169.71246337891 486.98635864258 108813.72106934 47867532.67054
14791	1897738 6328 15576 21356 208.25 258 200 0.96404410828435 12.341812243524 599.90560609026 3349.4480297429
14790	1904066 6818 15576 21356 208.25 258 200 -2.434398651123 2.5 43.338285446167 335.98609009511
14789	1910884 6823 15551 21356 208 258 201 1.24236369133 16.609571456909 2214.6832745075 30034.805769612
14788	1917707 7057 15526 21356 207.75 258 202 483.14999389648 734.68084716797 105853.81562805 56520282.829675
14787	1924764 7033 15526 21356 207.75 258 202 184.17810058594 486.87338256836 82604.00491333 35612491.074595
14798	1931797 6705 15677 21527 209.25 260.25 205 0.973 11.54047740176 565.63079870949 2842.719392746
14797	1938502 6843 15677 21527 209.25 260.25 205 -4.5 2.5 36.98334312439 350.85887078238
14796	1945345 7004 15652 21527 209 260.25 206 3.3859634399414 15.5 2304.8535761833 29992.905790526
14795	1952349 7245 15626 21527 208.75 260.25 207 483.14999389648 483.14999389648 100012.04873657 48320820.73665
14794	1959594 7203 15626 21527 208.75 260.25 207 162.00311279297 733.08444213867 90268.945098877 44120218.915828
14826	1966797 5397 16772 21678 220.75 262.5 168 0.973 11.90022389248 531.42574372124 3133.6831337626
14825	1972194 5505 16772 21678 220.75 262.5 168 -3.1171951293945 2.5 39.869146347046 269.53533792895
14824	1977699 5608 16749 21678 220.5 262.5 169 5.6500000953674 16 2211.0196552277 30178.906389889
14823	1983307 5947 16725 21678 220.25 262.5 170 483.14999389648 733.77896118164 90387.60760498 49034881.424173
14822	1989254 5928 16725 21678 220.25 262.5 170 184.17810058594 486.85000610352 67694.630371094 28729279.137029
vector 14913  IntersectionExampleScenario.node[78].veinsmobility  posx  ETV
vector 14914  IntersectionExampleScenario.node[78].veinsmobility  posy  ETV
14777	1995336 7501 15325 21843 205.5 265.5 241 0.973 11.36141391502 600.82441720046 2853.6161603732
14776	2002837 7084 15325 21843 205.5 265.5 241 -7.658106803894 4 37.15309715271 472.01963153841
14775	2009921 7136 15304 21843 205.25 265.5 242 0 15.25 2177.0903193951 30122.54783076
14774	2017057 8491 15283 21843 205 265.5 243 486.63604736328 785.82187652588 133258.15869904 75128199.707264
14773	2025548 8439 15283 21843 205 265.5 243 236.84155273438 483.14999389648 109068.11019897 50033806.315129
vector 14915  IntersectionExampleScenario.node[78].veinsmobility  speed  ETV
vector 14916  IntersectionExampleScenario.node[78].veinsmobility  acceleration  ETV
vector 14917  IntersectionExampleScenario.node[78].veinsmobility  co2emission  ETV
14805	2034234 7006 15906 21888 211.5 266.25 220 0.973 10.916047529558 558.41325912519 2535.7951258969
14804	2041240 6369 15906 21888 211.5 266.25 220 -7.1267910003662 4 34.437047958374 443.47186880003
14803	2047609 6799 15879 21888 211.25 266.25 221 0 14.625 2182.5621302128 29045.20439781
14802	2054408 7743 15852 21888 211 266.25 222 184.17810058594 483.36395263672 92194.427947998 40307539.447683
14801	2062151 7708 15852 21888 211 266.25 222 486.85000610352 734.64698791504 116896.65591431 62657941.973115
14847	2069859 5646 16932 21903 222.25 266.5 178 0.973 12.131293263739 551.0917613821 3213.2629461785
14846	2075505 6103 16932 21903 222.25 266.5 178 -2.3798484802246 2.5 42.678274154663 320.09487294947
14845	2081608 6106 16903 21903 222 266.5 179 1.9085705280304 16.319568634033 2075.0396900177 28244.934331646
14844	2087714 6280 16874 21903 221.75 266.5 180 214.94219970703 486.92932128906 75038.224639893 32653223.503162
14843	2093994 6294 16874 21903 221.75 266.5 180 239.03137207031 486.85000610352 79596.088500977 36169295.528426
14784	2100288 7979 15434 21918 206.75 266.75 241 0.973 11.200708441096 601.91389858061 2736.4549579473
14783	2108267 7738 15434 21918 206.75 266.75 241 -4.5 2.5 35.964826583862 423.82695405288
14782	2116005 8024 15411 21918 206.5 266.75 242 0 15.02499961853 2292.4278529836 31143.402010171
14781	2124029 8472 15388 21918 206.25 266.75 243 238.55249023438 807.09531402588 127251.40477753 71389620.229033
14780	2132501 8507 15388 21918 206.25 266.75 243 483.14999389648 483.14999389648 117405.44851685 56724441.734328
vector 14920  IntersectionExampleScenario.node[79].veinsmobility  posx  ETV
vector 14921  IntersectionExampleScenario.node[79].veinsmobility  posy  ETV
vector 14922  IntersectionExampleScenario.node[79].veinsmobility  speed  ETV
14833	2141240 6150 16822 22025 221.25 268.5 190 0.97223939240464 11.648172402475 547.92322854922 2798.7351822009
14832	2147390 6254 16822 22025 221.25 268.5 190 -2.0567283630371 2.5 38.680875778198 295.50942411617
14831	2153644 6405 16797 22025 221 268.5 191 2.391313791275 15.64999961853 2210.6317179203 29308.216972305
14830	2160049 6711 16772 22025 220.75 268.5 192 483.14999389648 785.82187652588 108414.6129837 63049023.432371
14829	2166760 6713 16772 22025 220.75 268.5 192 483.14999389648 733.35215759277 101153.74993896 54322263.687626
vector 14923  IntersectionExampleScenario.node[79].veinsmobility  acceleration  ETV
vector 14924  IntersectionExampleScenario.node[79].veinsmobility  co2emission  ETV
14819	2173642 6555 16749 22093 220.5 269.5 197 0.973 11.297632613945 569.27298173896 2842.9121992842
14818	2180197 6677 16749 22093 220.5 269.5 197 -4.5 2.5 37.15309715271 412.32554586868
14817	2186874 6747 16725 22093 220.25 269.5 198 3.6595656871796 15.360476493835 2201.3294494152 27891.644438248
14816	2193621 6936 16702 22093 220 269.5 199 184.17810058594 486.87387084961 78829.414855957 33288758.485428
14815	2200557 6950 16702 22093 220 269.5 199 238.13195800781 486.85003662109 88408.069702148 40320782.956747
vector 14927  IntersectionExampleScenario.node[80].veinsmobility  posx  ETV
vector 14928  IntersectionExampleScenario.node[80].veinsmobility  posy  ETV
vector 14929  IntersectionExampleScenario.node[80].veinsmobility  speed  ETV
14840	2207739 6608 16903 22265 222 272 201 0.973 11.36141391502 569.52878510395 2839.5019951841
14839	2214347 6674 16903 22265 222 272 201 -4.5 2.5 36.813589096069 367.79994590294
14838	2221021 6751 16874 22265 221.75 272 202 3.8227081298828 15.25 2262.540738821 28383.766199756
14837	2227772 7079 16847 22265 221.5 272 203 163.88433837891 483.15521240234 79149.123779297 33140132.561723
14836	2234851 7084 16847 22265 221.5 272 203 486.85000610352 732.59800720215 107176.72447205 57606368.079198
vector 14930  IntersectionExampleScenario.node[80].veinsmobility  acceleration  ETV
vector 14931  IntersectionExampleScenario.node[80].veinsmobility  co2emission  ETV
vector 14934  IntersectionExampleScenario.node[81].veinsmobility  posx  ETV
vector 14935  IntersectionExampleScenario.node[81].veinsmobility  posy  ETV
vector 14936  IntersectionExampleScenario.node[81].veinsmobility  speed  ETV
vector 14937  IntersectionExampleScenario.node[81].veinsmobility  acceleration  ETV
vector 14938  IntersectionExampleScenario.node[81].veinsmobility  co2emission  ETV
14868	2242505 6035 17764 22490 229 275.25 186 0.973 10.756497587458 500.05630009933 2417.2154877669
14867	2248540 6212 17764 22490 229 275.25 186 -2.5668563842773 2.5 34.267293930054 228.33147042229
14866	2254752 6272 17731 22490 228.75 275.25 187 5.6500000953674 14.553475379944 2189.7405605316 27169.806385281
14865	2261024 6552 17698 22490 228.5 275.25 188 184.17810058594 483.14999389648 75104.871490479 31834296.71602
14864	2267576 6576 17698 22490 228.5 275.25 188 486.85000610352 734.95294189453 100395.47558594 54659291.823315
14882	2274152 5028 19001 22558 238 276.25 154 0.973 12.099024792222 538.71159947133 3504.4951187261
14881	2279180 4752 19001 22558 238 276.25 154 -3.2228012084961 2.5 41.90619468689 295.49787148918
14880	2283932 5107 18965 22558 237.75 276.25 155 5.6500000953674 16.27499961853 2202.8622331619 32394.592301364
14879	2289039 5433 18928 22558 237.5 276.25 156 184.17810058594 486.85000610352 61887.217895508 26289271.237914
14878	2294472 5454 18928 22558 237.5 276.25 156 238.18884277344 486.85000610352 68058.11315918 30597047.207689
14812	2299926 7106 16725 22636 220.25 277.5 230 0.973 12.553400930962 646.67883931928 3645.5085405763
14811	2307032 6644 16725 22636 220.25 277.5 230 -7.3326930999756 4 42.585195541382 545.96923108676
14810	2313676 6760 16702 22636 220 277.5 231 0 16.89999961853 2184.2315280437 32493.375534156
14809	2320436 8044 16681 22636 219.75 277.5 232 486.85000610352 734.72305297852 120732.96577454 63847710.845755
14808	2328480 8107 16681 22636 219.75 277.5 232 486.63604736328 785.82187652588 127136.67513275 71642431.589248
14875	2336587 6139 18263 22775 232.75 280 190 0.973 11.450879080643 535.79437791268 2735.1511932526
14874	2342726 6202 18263 22775 232.75 280 190 -2.135440826416 2.5 37.15309715271 292.53523915464
14873	2348928 6427 18228 22775 232.5 280 191 2.0775797367096 15.375 2203.9372096062 28963.481027952
14872	2355355 6717 18193 22775 232.25 280 192 237.82885742188 486.85000610352 84978.748382568 38645946.215131
14871	2362072 6713 18193 22775 232.25 280 192 483.14999389648 785.82187652588 108365.04317474 63020642.270937
vector 14941  IntersectionExampleScenario.node[82].veinsmobility  posx  ETV
vector 14942  IntersectionExampleScenario.node[82].veinsmobility  posy  ETV
vector 14943  IntersectionExampleScenario.node[82].veinsmobility  speed  ETV
vector 14944  IntersectionExampleScenario.node[82].veinsmobility  acceleration  ETV
vector 14945  IntersectionExampleScenario.node[82].veinsmobility  co2emission  ETV
14854	2369186 7983 17023 23252 223 289.25 266 0.973 11.810082123732 630.88857284982 3123.619606936
14853	2377169 7579 17023 23252 223 289.25 266 -23.986267089844 4 38.511121749878 958.45737944165
14852	2384748 7676 16992 23252 222.75 289.25 267 0 15.875 2250.7795162201 31221.955117592
14851	2392424 9302 16961 23252 222.5 289.25 268 235.74822998047 483.14999389648 121256.0045166 55962973.416491
14850	2401726 9354 16961 23252 222.5 289.25 268 167.29217529297 483.36395263672 112787.37368774 49869488.961929
vector 14948  IntersectionExampleScenario.node[83].veinsmobility  posx  ETV
vector 14949  IntersectionExampleScenario.node[83].veinsmobility  posy  ETV
vector 14950  IntersectionExampleScenario.node[83].veinsmobility  speed  ETV
vector 14951  IntersectionExampleScenario.node[83].veinsmobility  acceleration  ETV
vector 14952  IntersectionExampleScenario.node[83].veinsmobility  co2emission  ETV
14861	2411481 8272 17481 23311 226.75 290.5 256 0.973 11.54047740176 621.25979787008 2870.7907544843
14860	2419753 8122 17481 23311 226.75 290.5 256 -4.5 2.5 37.32285118103 439.38872517077
14859	2427875 8219 17450 23311 226.5 290.5 257 0 15.5 2278.3565595048 31695.09484337
14858	2436094 9031 17419 23311 226.25 290.5 258 483.14999389648 483.14999389648 124652.69842529 60225950.48336
14857	2445125 8938 17419 23311 226.25 290.5 258 167.77423095703 732.91380310059 115970.73161316 56723990.431846
14889	2454063 7021 19075 23426 238.5 293 219 0.973 11.450879080643 569.94205544606 2787.0453114557
14888	2461084 7120 19075 23426 238.5 293 219 -3.8673098087311 2.5000009536743 37.492597579956 328.56007777666
14887	2468204 7395 19038 23426 238.25 293 220 0 15.375 2208.2032906003 28804.81314033
14886	2475599 7725 19001 23426 238 293 221 483.14999389648 733.14622497559 115293.2580719 61238241.188975
14885	2483324 7706 19001 23426 238 293 221 184.17810058594 486.85302734375 90982.367980957 39370098.517545
14903	2491030 6466 19921 23514 244.5 295 203 0.973 11.810082123732 577.36510773186 3027.0149281373
14902	2497496 6661 19921 23514 244.5 295 203 -3.8574104309082 2.5 39.869146347046 371.05674344564
14901	2504157 6807 19886 23514 244.25 295 204 2.0758326053619 15.875 2189.9058072567 28560.792482291
14900	2510964 7170 19850 23514 244 295 205 235.28442382812 483.14999389648 90946.850616455 41360966.09842
14899	2518134 7141 19850 23514 244 295 205 184.17810058594 483.14999389648 83027.540435791 35418726.636984
vector 14955  IntersectionExampleScenario.node[84].veinsmobility  posx  ETV
vector 14956  IntersectionExampleScenario.node[84].veinsmobility  posy  ETV
vector 14957  IntersectionExampleScenario.node[84].veinsmobility  speed  ETV
vector 14958  IntersectionExampleScenario.node[84].veinsmobility  acceleration  ETV
vector 14959  IntersectionExampleScenario.node[84].veinsmobility  co2emission  ETV
vector 14962  IntersectionExampleScenario.node[85].veinsmobility  posx  ETV
vector 14963  IntersectionExampleScenario.node[85].veinsmobility  posy  ETV
vector 14964  IntersectionExampleScenario.node[85].veinsmobility  speed  ETV
vector 14965  IntersectionExampleScenario.node[85].veinsmobility  acceleration  ETV
vector 14966  IntersectionExampleScenario.node[85].veinsmobility  co2emission  ETV
14896	2526077 6979 19850 23736 244 299.75 224 0.973 11.810082123732 607.43894793995 3202.0178178086
14895	2533056 6587 19850 23736 244 299.75 224 -8.5693702697754 4 40.208654403687 517.59696827819
14894	2539643 6687 19815 23736 243.75 299.75 225 0 16.008148193359 2170.5585308075 31243.03709794
14893	2546330 7888 19780 23736 243.5 299.75 226 184.17810058594 483.36395263672 94759.217193604 41709923.218133
14892	2554218 7837 19780 23736 243.5 299.75 226 486.85000610352 731.43809509277 117878.15237427 62485365.446731
14910	2562055 5906 21254 23848 256.75 302.25 183 0.973 12.099024792222 558.03619727911 3121.8809393914
14909	2567961 5937 21254 23848 256.75 302.25 183 -2.1541862487793 2.5 41.057416915894 307.23820597697
14908	2573898 6127 21233 23848 256.5 302.25 184 2.7543244361877 16.27499961853 2191.1082808971 29962.611401015
14907	2580025 6446 21212 23848 256.25 302.25 185 184.17810058594 483.169921875 74764.584869385 31981908.398257
14906	2586471 6467 21212 23848 256.25 302.25 185 486.85000610352 734.6219329834 98025.519744873 52905969.903799
vector 14969  IntersectionExampleScenario.node[86].veinsmobility  posx  ETV
vector 14970  IntersectionExampleScenario.node[86].veinsmobility  posy  ETV
vector 14971  IntersectionExampleScenario.node[86].veinsmobility  speed  ETV
14924	2593170 5110 22042 24048 268.75 306.75 153 0.973 12.099024792222 535.90005795793 3395.8379737729
14923	2598280 4918 22042 24048 268.75 306.75 153 -3.3570365905762 2.5 41.057416915894 289.77530793328
14922	2603198 5097 22025 24048 268.5 306.75 154 5.6500000953674 16.27499961853 2208.9523296356 32795.048063452
14921	2608295 5404 22008 24048 268.25 306.75 155 184.17810058594 486.85000610352 61657.774719238 26266457.795346
14920	2613699 5418 22008 24048 268.25 306.75 155 236.62414550781 486.85000610352 67374.977233887 30210517.357632
vector 14972  IntersectionExampleScenario.node[86].veinsmobility  acceleration  ETV
vector 14973  IntersectionExampleScenario.node[86].veinsmobility  co2emission  ETV
vector 14976  IntersectionExampleScenario.node[87].veinsmobility  posx  ETV
vector 14977  IntersectionExampleScenario.node[87].veinsmobility  posy  ETV
vector 14978  IntersectionExampleScenario.node[87].veinsmobility  speed  ETV
vector 14979  IntersectionExampleScenario.node[87].veinsmobility  acceleration  ETV
vector 14980  IntersectionExampleScenario.node[87].veinsmobility  co2emission  ETV
vector 14983  IntersectionExampleScenario.node[88].veinsmobility  posx  ETV
vector 14984  IntersectionExampleScenario.node[88].veinsmobility  posy  ETV
vector 14985  IntersectionExampleScenario.node[88].veinsmobility  speed  ETV
14917	2619919 6255 21873 24383 266 313.5 191 0.973 11.450879080643 551.65273413523 2805.9050598682
14916	2626174 5800 21873 24383 266 313.5 191 -8.2099418640137 4 36.813589096069 486.56962067089
14915	2631974 6146 21858 24383 265.75 313.5 192 0 15.375 2205.7411608696 30668.853766336
14914	2638120 6755 21843 24383 265.5 313.5 193 486.85000610352 486.85000610352 93962.051177979 45745425.189498
14913	2644875 6732 21843 24383 265.5 313.5 193 237.89031982422 785.82187652588 99882.73551178 55898983.166832
vector 14986  IntersectionExampleScenario.node[88].veinsmobility  acceleration  ETV
vector 14987  IntersectionExampleScenario.node[88].veinsmobility  co2emission  ETV
14938	2651776 5352 22473 24474 275 315.25 162 0.973 12.099024792222 520.32174019646 2972.56783325
14937	2657128 5163 22473 24474 275 315.25 162 -2.0862808227539 2.5 40.378400802612 250.71746781439
14936	2662291 5474 22456 24474 274.75 315.25 163 5.6500000953674 16.27499961853 2215.8099842072 31461.178793869
14935	2667765 5740 22439 24474 274.5 315.25 164 486.85000610352 486.85000610352 79843.401000977 38871760.264651
14934	2673505 5709 22439 24474 274.5 315.25 164 237.38885498047 785.82187652588 85909.93120575 49042030.471695
vector 14990  IntersectionExampleScenario.node[89].veinsmobility  posx  ETV
vector 14991  IntersectionExampleScenario.node[89].veinsmobility  posy  ETV
vector 14992  IntersectionExampleScenario.node[89].veinsmobility  speed  ETV
vector 14993  IntersectionExampleScenario.node[89].veinsmobility  acceleration  ETV
vector 14994  IntersectionExampleScenario.node[89].veinsmobility  co2emission  ETV
14931	2679615 6720 22284 24938 272.25 324.5 210 0.973 11.450879080643 570.50792770499 2835.2393549428
[...]
vector 17937  IntersectionExampleScenario.node[510].veinsmobility  posx  ETV
vector 17938  IntersectionExampleScenario.node[510].veinsmobility  posy  ETV
vector 17939  IntersectionExampleScenario.node[510].veinsmobility  speed  ETV
vector 17940  IntersectionExampleScenario.node[510].veinsmobility  acceleration  ETV
vector 17941  IntersectionExampleScenario.node[510].veinsmobility  co2emission  ETV
vector 17944  IntersectionExampleScenario.node[511].veinsmobility  posx  ETV
vector 17945  IntersectionExampleScenario.node[511].veinsmobility  posy  ETV
vector 17946  IntersectionExampleScenario.node[511].veinsmobility  speed  ETV
vector 17947  IntersectionExampleScenario.node[511].veinsmobility  acceleration  ETV
vector 17948  IntersectionExampleScenario.node[511].veinsmobility  co2emission  ETV
vector 17951  IntersectionExampleScenario.node[512].veinsmobility  posx  ETV
vector 17952  IntersectionExampleScenario.node[512].veinsmobility  posy  ETV
vector 17953  IntersectionExampleScenario.node[512].veinsmobility  speed  ETV
vector 17954  IntersectionExampleScenario.node[512].veinsmobility  acceleration  ETV
vector 17955  IntersectionExampleScenario.node[512].veinsmobility  co2emission  ETV
vector 17958  IntersectionExampleScenario.node[513].veinsmobility  posx  ETV
vector 17959  IntersectionExampleScenario.node[513].veinsmobility  posy  ETV
vector 17960  IntersectionExampleScenario.node[513].veinsmobility  speed  ETV
vector 17961  IntersectionExampleScenario.node[513].veinsmobility  acceleration  ETV
vector 17962  IntersectionExampleScenario.node[513].veinsmobility  co2emission  ETV
vector 17965  IntersectionExampleScenario.node[514].veinsmobility  posx  ETV
vector 17966  IntersectionExampleScenario.node[514].veinsmobility  posy  ETV
vector 17967  IntersectionExampleScenario.node[514].veinsmobility  speed  ETV
vector 17968  IntersectionExampleScenario.node[514].veinsmobility  acceleration  ETV
vector 17969  IntersectionExampleScenario.node[514].veinsmobility  co2emission  ETV
17899	17429561 5427 146113 148590 1730 1767.25 150 0.973 12.099024792222 488.44102676454 2754.3233874776
17898	17434988 5135 146113 148590 1730 1767.25 150 -3.4592323303223 2.5 40.887662887573 214.75836162569
17897	17440123 5346 146100 148590 1729.75 1767.25 151 5.6500000953674 16.27499961853 2225.5168018341 33588.470762743
17896	17445469 5624 146089 148590 1729.5 1767.25 152 483.14999389648 483.14999389648 73438.799072266 35481955.32353
17895	17451093 5600 146089 148590 1729.5 1767.25 152 184.17810058594 735.25187683105 68203.338623047 34666343.767762
vector 17972  IntersectionExampleScenario.node[515].veinsmobility  posx  ETV
vector 17973  IntersectionExampleScenario.node[515].veinsmobility  posy  ETV
vector 17974  IntersectionExampleScenario.node[515].veinsmobility  speed  ETV
vector 17975  IntersectionExampleScenario.node[515].veinsmobility  acceleration  ETV
vector 17976  IntersectionExampleScenario.node[515].veinsmobility  co2emission  ETV
17878	17457099 7563 145284 148827 1713.5 1770 227 0.973 11.90022389248 609.57240992329 3129.9982856542
17877	17464662 6990 145284 148827 1713.5 1770 227 -7.2641291618347 4 39.699392318726 488.74806203163
17876	17471652 7297 145265 148827 1713.25 1770 228 0 16 2217.2994669676 32035.832177997
17875	17478949 8460 145246 148827 1713 1770 229 235.46020507812 785.82187652588 117710.2027359 64636963.38329
17874	17487409 8471 145246 148827 1713 1770 229 483.14999389648 483.14999389648 110641.34860229 53456366.901897
vector 17979  IntersectionExampleScenario.node[516].veinsmobility  posx  ETV
vector 17980  IntersectionExampleScenario.node[516].veinsmobility  posy  ETV
17885	17496036 6540 145858 148965 1723.75 1771.5 192 0.973 11.90022389248 559.76843919217 3026.192691487
17884	17502576 6660 145858 148965 1723.75 1771.5 192 -2.1482048034668 2.5 39.869146347046 317.73777829187
17883	17509236 6879 145847 148965 1723.5 1771.5 193 1.5075680017471 16 2213.4945560694 29955.770390537
17882	17516115 7168 145836 148965 1723.25 1771.5 194 483.14999389648 785.82187652588 109147.32430267 63251201.412385
17881	17523283 7170 145836 148965 1723.25 1771.5 194 483.14999389648 734.19367980957 102011.53741455 54671517.964195
vector 17981  IntersectionExampleScenario.node[516].veinsmobility  speed  ETV
vector 17982  IntersectionExampleScenario.node[516].veinsmobility  acceleration  ETV
vector 17983  IntersectionExampleScenario.node[516].veinsmobility  co2emission  ETV
17892	17530703 6605 145980 149215 1727 1774 189 0.973 11.810082123732 576.15733641094 3165.3730600036
17891	17537308 6585 145980 149215 1727 1774 189 -4.5 2.5 39.529638290405 384.63910465229
17890	17543893 6706 145969 149215 1726.75 1774 190 4.1223378181458 15.875 2229.9660949707 29773.761786225
17889	17550599 7050 145958 149215 1726.5 1774 191 486.85000610352 797.07032012939 109258.29180145 64432172.021466
17888	17557649 7055 145958 149215 1726.5 1774 191 236.66790771484 483.14999389648 84236.083526611 38129188.139029
vector 17986  IntersectionExampleScenario.node[517].veinsmobility  posx  ETV
vector 17987  IntersectionExampleScenario.node[517].veinsmobility  posy  ETV
vector 17988  IntersectionExampleScenario.node[517].veinsmobility  speed  ETV
vector 17989  IntersectionExampleScenario.node[517].veinsmobility  acceleration  ETV
vector 17990  IntersectionExampleScenario.node[517].veinsmobility  co2emission  ETV
vector 17993  IntersectionExampleScenario.node[518].veinsmobility  posx  ETV
vector 17994  IntersectionExampleScenario.node[518].veinsmobility  posy  ETV
vector 17995  IntersectionExampleScenario.node[518].veinsmobility  speed  ETV
vector 17996  IntersectionExampleScenario.node[518].veinsmobility  acceleration  ETV
vector 17997  IntersectionExampleScenario.node[518].veinsmobility  co2emission  ETV
vector 18000  IntersectionExampleScenario.node[519].veinsmobility  posx  ETV
vector 18001  IntersectionExampleScenario.node[519].veinsmobility  posy  ETV
vector 18002  IntersectionExampleScenario.node[519].veinsmobility  speed  ETV
vector 18003  IntersectionExampleScenario.node[519].veinsmobility  acceleration  ETV
vector 18004  IntersectionExampleScenario.node[519].veinsmobility  co2emission  ETV
vector 18007  IntersectionExampleScenario.node[520].veinsmobility  posx  ETV
vector 18008  IntersectionExampleScenario.node[520].veinsmobility  posy  ETV
vector 18009  IntersectionExampleScenario.node[520].veinsmobility  speed  ETV
vector 18010  IntersectionExampleScenario.node[520].veinsmobility  acceleration  ETV
vector 18011  IntersectionExampleScenario.node[520].veinsmobility  co2emission  ETV
vector 18014  IntersectionExampleScenario.node[521].veinsmobility  posx  ETV
vector 18015  IntersectionExampleScenario.node[521].veinsmobility  posy  ETV
vector 18016  IntersectionExampleScenario.node[521].veinsmobility  speed  ETV
vector 18021  IntersectionExampleScenario.node[522].veinsmobility  posx  ETV
vector 18022  IntersectionExampleScenario.node[522].veinsmobility  posy  ETV
vector 18017  IntersectionExampleScenario.node[521].veinsmobility  acceleration  ETV
vector 18018  IntersectionExampleScenario.node[521].veinsmobility  co2emission  ETV
vector 18023  IntersectionExampleScenario.node[522].veinsmobility  speed  ETV
vector 18028  IntersectionExampleScenario.node[523].veinsmobility  posx  ETV
vector 18029  IntersectionExampleScenario.node[523].veinsmobility  posy  ETV
vector 18024  IntersectionExampleScenario.node[522].veinsmobility  acceleration  ETV
vector 18025  IntersectionExampleScenario.node[522].veinsmobility  co2emission  ETV
vector 18030  IntersectionExampleScenario.node[523].veinsmobility  speed  ETV
vector 18031  IntersectionExampleScenario.node[523].veinsmobility  acceleration  ETV
vector 18032  IntersectionExampleScenario.node[523].veinsmobility  co2emission  ETV
vector 18035  IntersectionExampleScenario.node[524].veinsmobility  posx  ETV
vector 18036  IntersectionExampleScenario.node[524].veinsmobility  posy  ETV
vector 18037  IntersectionExampleScenario.node[524].veinsmobility  speed  ETV
vector 18038  IntersectionExampleScenario.node[524].veinsmobility  acceleration  ETV
vector 18039  IntersectionExampleScenario.node[524].veinsmobility  co2emission  ETV
17906	17567952 8378 146126 151454 1730.25 1793.75 255 0.973 11.90022389248 661.60210873676 3393.0484262449
17905	17576330 7809 146126 151454 1730.25 1793.75 255 -7.4161043167114 4 39.529638290405 571.94186634444
17904	17584139 8003 146113 151454 1730 1793.75 256 0 16 2285.428437233 32734.01183259
17903	17592142 9503 146100 151454 1729.75 1793.75 257 483.14999389648 734.1416015625 132478.10005188 69411290.118113
17902	17601645 9486 146100 151454 1729.75 1793.75 257 159.76721191406 486.85000610352 107089.77362061 47245731.206323
17913	17611131 8103 146499 151791 1738.25 1797.25 237 0.973 10.756497587458 553.63822122864 2388.0243943601
17912	17619234 8302 146499 151791 1738.25 1797.25 237 -3.8210225105286 2.5000002384186 32.909269332886 302.84775644707
17911	17627536 8519 146486 151791 1738 1797.25 238 0 14.39999961853 2184.9624772631 26809.908098557
17910	17636055 8830 146473 151791 1737.75 1797.25 239 236.36724853516 483.14999389648 106489.05361938 48585676.794963
17909	17644885 8815 146473 151791 1737.75 1797.25 239 184.17810058594 483.29052734375 99047.627960205 43052529.806636
17920	17653700 8030 146529 151837 1738.75 1797.75 237 0.973 11.90022389248 620.4426374966 3008.0699099629
17919	17661730 8260 146529 151837 1738.75 1797.75 237 -4.5 2.5000009536743 39.699392318726 458.20694770699
17918	17669990 8502 146514 151837 1738.5 1797.75 238 0 16 2304.2308268547 30179.297608894
17917	17678492 8840 146499 151837 1738.25 1797.75 239 483.14999389648 733.53427124023 123730.52711487 65146827.352614
17916	17687332 8811 146499 151837 1738.25 1797.75 239 160.43438720703 486.85000610352 96563.749847412 41362003.021363
vector 18042  IntersectionExampleScenario.node[525].veinsmobility  posx  ETV
vector 18043  IntersectionExampleScenario.node[525].veinsmobility  posy  ETV
vector 18044  IntersectionExampleScenario.node[525].veinsmobility  speed  ETV
vector 18045  IntersectionExampleScenario.node[525].veinsmobility  acceleration  ETV
vector 18046  IntersectionExampleScenario.node[525].veinsmobility  co2emission  ETV
17927	17696549 8089 146729 152044 1742 1800 233 0.973 11.200708441096 609.20442279344 2800.3405853625
17926	17704638 8257 146729 152044 1742 1800 233 -4.9504661560059 2.5 37.15309715271 514.42311067546
17925	17712895 8317 146712 152044 1741.75 1800 234 0 15.02499961853 2213.786920622 28060.411813547
17924	17721212 8690 146695 152044 1741.5 1800 235 253.03112792969 483.14999389648 106216.67175293 48897503.27996
17923	17729902 8666 146695 152044 1741.5 1800 235 160.75469970703 483.14999389648 94312.951660156 40098290.210892
17934	17738568 7385 146869 152044 1744 1800 225 0.973 11.450879080643 566.50510047672 2782.334051079
17933	17745953 6590 146869 152044 1744 1800 225 -37.083343505859 4 36.983396530151 1730.4872896401
17932	17752543 6925 146850 152044 1743.75 1800 226 0 15.375 1881.1209001541 26376.503495684
17931	17759468 8393 146831 152044 1743.5 1800 227 319.25341796875 785.82187652588 121629.75626373 68036433.90998
17930	17767861 8398 146831 152044 1743.5 1800 227 483.14999389648 483.14999389648 109675.0486145 52989499.068693
17941	17776259 6660 147367 152044 1750.5 1800 199 0.973 11.36141391502 506.55105475398 2604.9643947549
17940	17782919 7059 147367 152044 1750.5 1800 199 -3.7818942070007 2.5 35.966760635376 330.46065510508
17939	17789978 6963 147346 152044 1750.25 1800 200 0 15.25 1749.0938099418 21585.512215463
17938	17796941 7423 147325 152044 1750 1800 201 486.78955078125 785.82187652588 113809.43505096 66224451.374342
17937	17804364 7433 147325 152044 1750 1800 201 345.49108886719 483.14999389648 94368.322418213 44516202.544313
17948	17811797 6106 147719 152044 1755 1800 181 0.973 12.099024792222 552.82715934497 3163.1009182094
17947	17817903 5885 147719 152044 1755 1800 181 -6.9979004859924 4 41.227170944214 492.65892816269
17946	17823788 5934 147700 152044 1754.75 1800 182 0 16.27499961853 1918.4286230803 27882.51985714
17945	17829722 6743 147681 152044 1754.5 1800 183 184.17810058594 659.5965423584 78444.346176147 36425569.032802
17944	17836465 6770 147681 152044 1754.5 1800 183 486.85000610352 486.85000610352 89093.551116943 43375195.905068
17955	17843235 5872 147796 152044 1756 1800 177 0.973 11.200708441096 466.42402875212 2474.5184168747
17954	17849107 6276 147796 152044 1756 1800 177 -2.8976402282715 2.5 35.990076065063 298.09460026273
17953	17855383 6269 147777 152044 1755.75 1800 178 0.96459180116653 15.113698959351 1601.6916447282 18565.844599188
17952	17861652 6599 147757 152044 1755.5 1800 179 486.7985534668 785.82187652588 103622.03263092 61582983.243105
17951	17868251 6617 147757 152044 1755.5 1800 179 382.28625488281 483.14999389648 84953.324615479 40405709.33048
17962	17874868 4453 148510 152044 1766.25 1800 136 0.973 11.200708441096 321.918823038 1444.9503726695
17961	17879321 4140 148510 152044 1766.25 1800 136 -8.2099418640137 4 -1.1000003814697 385.96008656188
17960	17883461 4407 148491 152044 1766 1800 137 0 15.02499961853 1171.6577925682 15864.836755701
17959	17887868 5104 148472 152044 1765.75 1800 138 486.85000610352 488.3235168457 67188.69744873 32712474.905114
17958	17892972 5098 148472 152044 1765.75 1800 138 493.81311035156 785.82187652588 81806.033607483 49920051.582292
17969	17898070 4612 148590 152044 1767.25 1800 132 0.973 10.756497587458 307.95687152953 1366.2526761605
17968	17902682 4693 148590 152044 1767.25 1800 132 -4.5 2.5 -13.002899169922 298.61016585574
17967	17907375 4880 148569 152044 1767 1800 133 0 14.986335754395 1218.1388023579 16330.628158097
17966	17912255 4957 148548 152044 1766.75 1800 134 486.85000610352 486.85000610352 65237.900817871 31761072.411361
17965	17917212 4943 148548 152044 1766.75 1800 134 503.9443359375 807.99687957764 82201.259521484 51948633.769806
17976	17922155 4145 148804 152044 1769.75 1800 122 0.973 11.200708441096 305.09811130028 1433.0392572741
17975	17926300 4378 148804 152044 1769.75 1800 122 -4.1927871704102 2.5 -20.22407412529 264.92434056435
17974	17930678 4534 148781 152044 1769.5 1800 123 0 15.370376586914 1199.5785951167 16067.534993135
17973	17935212 4588 148758 152044 1769.25 1800 124 486.85000610352 486.85000610352 60369.400756836 29390843.126931
17972	17939800 4575 148758 152044 1769.25 1800 124 512.0768737793 812.50313568115 77631.143089294 49960716.009596
17983	17944375 3910 149015 152044 1772 1800 113 0.973 11.90022389248 465.73223470548 3416.1798849393
17982	17948285 3655 149015 152044 1772 1800 113 -3.7961349487305 2.5 40.002058029175 352.82477626074
17981	17951940 3918 148990 152044 1771.75 1800 114 5.6500000953674 16 1490.8148288727 20298.457704643
17980	17955858 4237 148965 152044 1771.5 1800 115 483.12780761719 785.82187652588 69914.051445007 43750011.16859
17979	17960095 4252 148965 152044 1771.5 1800 115 483.14999389648 553.53744506836 56315.831451416 27606986.649046
17990	17964347 3562 149319 152044 1775 1800 101 0.973 10.756497587458 290.704539998 1453.2921951388
17989	17967909 3537 149319 152044 1775 1800 101 -4.1111717224121 2.5 21.39999961853 176.66051696387
17988	17971446 3561 149292 152044 1774.75 1800 102 5.6500000953674 14.39999961853 1281.7536439896 16614.951127347
17987	17975007 3779 149265 152044 1774.5 1800 103 184.17810058594 487.04605102539 35174.483612061 13015888.013768
17986	17978786 3810 149265 152044 1774.5 1800 103 466.10723876953 486.85000610352 50036.247161865 24308422.329131
17997	17982596 3163 149646 152044 1778 1800 89 0.973 11.200708441096 264.08383555709 1341.8457442624
17996	17985759 3271 149646 152044 1778 1800 89 -45.27954864502 2.5 -22.60000038147 2195.5911586029
17995	17989030 3217 149618 152044 1777.75 1800 90 0 15.02499961853 1148.0268983841 16272.817820457
17994	17992247 3361 149589 152044 1777.5 1800 91 498.39999389648 785.82187652588 58389.287193298 38259170.037846
17993	17995608 3366 149589 152044 1777.5 1800 91 483.14999389648 483.14999389648 43966.64944458 21242486.410798
18004	17998974 3040 149731 152044 1778.75 1800 86 0.973 10.756497587458 246.21383505594 1191.098725986
18003	18002014 2859 149731 152044 1778.75 1800 86 -3.2281799316406 2.5 1.5758419036865 185.91188886568
18002	18004873 3207 149702 152044 1778.5 1800 87 5.6500000953674 14.39999961853 1129.3298926353 15168.340051669
18001	18008080 3256 149673 152044 1778.25 1800 88 483.14999389648 483.14999389648 42517.199462891 20542184.660991
18000	18011336 3230 149673 152044 1778.25 1800 88 184.17810058594 464.7646484375 28126.295410156 9670871.6986522
18011	18014566 2769 149983 152044 1781 1800 77 0.973 11.200708441096 261.62473315594 1395.7455322924
18010	18017335 2754 149983 152044 1781 1800 77 -4.5 2.5 11.868711471558 215.63285857323
18009	18020089 2872 149954 152044 1780.75 1800 78 5.6500000953674 15.756322860718 1107.683008194 16284.559425274
18008	18022961 2910 149925 152044 1780.5 1800 79 524.71112060547 798.59687805176 52996.149734497 36133330.492334
18007	18025871 2922 149925 152044 1780.5 1800 79 483.14999389648 483.14999389648 38168.849517822 18441279.411572
18018	18028793 2264 150394 152044 1784.75 1800 62 0.973 11.200708441096 230.14465765839 1364.114821819
18017	18031057 2195 150394 152044 1784.75 1800 62 -3.5300674438477 2.5 33.215921401978 123.73773355158
18016	18033252 2314 150367 152044 1784.5 1800 63 5.6500000953674 15.02499961853 862.35851097107 12180.443269175
18015	18035566 2359 150340 152044 1784.25 1800 64 589.19497680664 800.17032623291 45050.197174072 31987692.215272
18014	18037925 2368 150340 152044 1784.25 1800 64 483.14999389648 483.14999389648 30921.599609375 14939770.662539
18025	18040293 2120 150452 152044 1785.25 1800 60 0.973 11.648172402475 218.60466940435 1376.1611327745
18024	18042413 2108 150452 152044 1785.25 1800 60 -2.1022186279297 2.5 22.229471206665 135.09550174197
18023	18044521 2240 150423 152044 1785 1800 61 5.6500000953674 15.778749465942 837.2858171463 11948.764420929
18022	18046761 2293 150394 152044 1784.75 1800 62 486.85000610352 486.85000610352 30184.700378418 14695421.563466
18021	18049054 2289 150394 152044 1784.75 1800 62 580.31994628906 785.82187652588 42835.850639343 29860301.26221
18032	18051343 2117 150514 152044 1785.75 1800 58 0.973 11.200708441096 206.35126983944 1220.1814949563
18031	18053460 2120 150514 152044 1785.75 1800 58 -0.5 2.5 35.455564498901 94.340745310536
18030	18055580 2169 150483 152044 1785.5 1800 59 5.6500000953674 15.02499961853 791.04167175293 10945.885457555
18029	18057749 2192 150452 152044 1785.25 1800 60 184.17810058594 377.09091186523 16315.353881836 4653209.4514978
18028	18059941 2220 150452 152044 1785.25 1800 60 486.85000610352 486.85000610352 29211.000366211 14221375.70658
18039	18062161 1840 150766 152044 1787.75 1800 50 1.5237915469079 11.200708441096 194.71351628722 1202.4136932293
18038	18064001 1819 150766 152044 1787.75 1800 50 -0.17160415649414 2.5 36.813611984253 93.817300476312
18037	18065820 1875 150733 152044 1787.5 1800 51 5.6500000953674 15.02499961853 685.78361988068 9579.7827948434
18036	18067695 1919 150700 152044 1787.25 1800 52 639.26974487305 805.77111053467 38034.946662903 27962092.797078
18035	18069614 1924 150700 152044 1787.25 1800 52 483.14999389648 483.14999389648 25123.799682617 12138563.663313
18046	18071538 73 152020 152044 1799.75 1800 2 5.2162187258585 5.6304533568076 10.846672082666 58.910942799184
18045	18071611 49 152020 152044 1799.75 1800 2 2.5 2.5 5 12.5
18044	18071660 110 151997 152044 1799.5 1800 3 5.6500000953674 6.9000000953674 18.825000286102 118.90812859058
18043	18071770 148 151974 152044 1799.25 1800 4 483.14999389648 483.14999389648 1932.5999755859 933735.66640869
18042	18071918 148 151974 152044 1799.25 1800 4 184.17810058594 187.00311279297 740.87182617188 137228.20185051
14363	18072066 631 0 152043 0 1800 31 0 24 449 7317
14364	18072697 647 0 152043 0 1800 31 0 166 2622 297044
