file 16036391 1591477786                                        
version 2
run nodebug-5-20200606-17:07:09-10964
attr configname nodebug
attr datetime 20200606-17:07:09
attr experiment nodebug
attr inifile omnetpp.ini
attr iterationvars ""
attr iterationvars2 $repetition=5
attr measurement ""
attr network "\"org.car2x.veins.modules.application.ExtTraCIScenarioManagerLaunchd.IntersectionExampleScenario\""
attr processid 10964
attr repetition 5
attr replication #5
attr resultdir results
attr runnumber 5
attr seedset 5
param **.coreDebug false
param **.debug false
param *.**.nic.mac1609_4.bitrate 18Mbps
param *.**.nic.mac1609_4.txPower 20mW
param *.**.nic.mac1609_4.useServiceChannel false
param *.**.nic.phy80211p.analogueModels "xmldoc(\"config.xml\")"
param *.**.nic.phy80211p.decider "xmldoc(\"config.xml\")"
param *.**.nic.phy80211p.sensitivity -89dBm
param *.**.nic.phy80211p.thermalNoise -110dBm
param *.**.nic.phy80211p.usePropagationDelay true
param *.**.nic.phy80211p.useThermalNoise true
param *.annotations.draw false
param *.connectionManager.alpha 2.0
param *.connectionManager.carrierFrequency "5.890e9 Hz"
param *.connectionManager.pMax 20mW
param *.connectionManager.sat -89dBm
param *.connectionManager.sendDirect true
param *.manager.autoShutdown true
param *.manager.host "\"localhost\""
param *.manager.launchConfig "xmldoc(\"paramics.launchd.xml\")"
param *.manager.margin 25
param *.manager.moduleDisplayString "\"\""
param *.manager.moduleName "\"node\""
param *.manager.moduleType "\"org.car2x.veins.nodes.Car\""
param *.manager.port 9999
param *.manager.updateInterval 250ms
param *.node[*0].veinsmobility.accidentCount 0
param *.node[*0].veinsmobility.accidentDuration 30s
param *.node[*0].veinsmobility.accidentStart 75s
param *.node[*].appl.LiderSelectZoneRadio 55.0
param *.node[*].appl.ShareDataZoneRadio 110.0
param *.node[*].appl.TiempoSemaforo 30.0
param *.node[*].appl.beaconInterval 1s
param *.node[*].appl.beaconPriority 3
param *.node[*].appl.dataOnSch false
param *.node[*].appl.dataPriority 2
param *.node[*].appl.debug false
param *.node[*].appl.headerLength "256 bit"
param *.node[*].appl.maxOffset 0.005s
param *.node[*].appl.sendBeacons false
param *.node[*].appl.sendData true
param *.node[*].applType "\"Dummy\""
param *.node[*].mobilityType "\"TraCIMobility\""
param *.node[*].mobilityType.debug true
param *.node[*].veinsmobility.x 0
param *.node[*].veinsmobility.y 0
param *.node[*].veinsmobility.z 1.895
param *.node[*].veinsmobilityType "\"org.car2x.veins.modules.mobility.traci.TraCIMobility\""
param *.node[*].veinsmobilityType.debug true
param *.playgroundSizeX 8500m
param *.playgroundSizeY 8500m
param *.playgroundSizeZ 50m
param *.world.use2D false
param *.world.useTorus false

vector 3678  IntersectionExampleScenario.manager  vehiclesinsim  ETV
attr type  int
vector 3679  IntersectionExampleScenario.manager  realtime  ETV
attr type  int
attr unit  s
vector 3682  IntersectionExampleScenario.node[0].veinsmobility  posx  ETV
vector 3683  IntersectionExampleScenario.node[0].veinsmobility  posy  ETV
vector 3684  IntersectionExampleScenario.node[0].veinsmobility  speed  ETV
vector 3685  IntersectionExampleScenario.node[0].veinsmobility  acceleration  ETV
vector 3686  IntersectionExampleScenario.node[0].veinsmobility  co2emission  ETV
vector 3689  IntersectionExampleScenario.node[1].veinsmobility  posx  ETV
vector 3690  IntersectionExampleScenario.node[1].veinsmobility  posy  ETV
vector 3691  IntersectionExampleScenario.node[1].veinsmobility  speed  ETV
vector 3692  IntersectionExampleScenario.node[1].veinsmobility  acceleration  ETV
vector 3693  IntersectionExampleScenario.node[1].veinsmobility  co2emission  ETV
vector 3696  IntersectionExampleScenario.node[2].veinsmobility  posx  ETV
vector 3697  IntersectionExampleScenario.node[2].veinsmobility  posy  ETV
vector 3698  IntersectionExampleScenario.node[2].veinsmobility  speed  ETV
vector 3699  IntersectionExampleScenario.node[2].veinsmobility  acceleration  ETV
vector 3700  IntersectionExampleScenario.node[2].veinsmobility  co2emission  ETV
vector 3703  IntersectionExampleScenario.node[3].veinsmobility  posx  ETV
vector 3704  IntersectionExampleScenario.node[3].veinsmobility  posy  ETV
vector 3705  IntersectionExampleScenario.node[3].veinsmobility  speed  ETV
vector 3706  IntersectionExampleScenario.node[3].veinsmobility  acceleration  ETV
vector 3707  IntersectionExampleScenario.node[3].veinsmobility  co2emission  ETV
vector 3710  IntersectionExampleScenario.node[4].veinsmobility  posx  ETV
vector 3711  IntersectionExampleScenario.node[4].veinsmobility  posy  ETV
vector 3712  IntersectionExampleScenario.node[4].veinsmobility  speed  ETV
vector 3713  IntersectionExampleScenario.node[4].veinsmobility  acceleration  ETV
vector 3714  IntersectionExampleScenario.node[4].veinsmobility  co2emission  ETV
vector 3717  IntersectionExampleScenario.node[5].veinsmobility  posx  ETV
vector 3718  IntersectionExampleScenario.node[5].veinsmobility  posy  ETV
vector 3719  IntersectionExampleScenario.node[5].veinsmobility  speed  ETV
vector 3720  IntersectionExampleScenario.node[5].veinsmobility  acceleration  ETV
vector 3721  IntersectionExampleScenario.node[5].veinsmobility  co2emission  ETV
vector 3724  IntersectionExampleScenario.node[6].veinsmobility  posx  ETV
vector 3725  IntersectionExampleScenario.node[6].veinsmobility  posy  ETV
vector 3726  IntersectionExampleScenario.node[6].veinsmobility  speed  ETV
vector 3727  IntersectionExampleScenario.node[6].veinsmobility  acceleration  ETV
vector 3728  IntersectionExampleScenario.node[6].veinsmobility  co2emission  ETV
vector 3731  IntersectionExampleScenario.node[7].veinsmobility  posx  ETV
vector 3732  IntersectionExampleScenario.node[7].veinsmobility  posy  ETV
vector 3733  IntersectionExampleScenario.node[7].veinsmobility  speed  ETV
vector 3734  IntersectionExampleScenario.node[7].veinsmobility  acceleration  ETV
vector 3735  IntersectionExampleScenario.node[7].veinsmobility  co2emission  ETV
vector 3738  IntersectionExampleScenario.node[8].veinsmobility  posx  ETV
vector 3739  IntersectionExampleScenario.node[8].veinsmobility  posy  ETV
vector 3740  IntersectionExampleScenario.node[8].veinsmobility  speed  ETV
vector 3745  IntersectionExampleScenario.node[9].veinsmobility  posx  ETV
vector 3746  IntersectionExampleScenario.node[9].veinsmobility  posy  ETV
vector 3741  IntersectionExampleScenario.node[8].veinsmobility  acceleration  ETV
vector 3742  IntersectionExampleScenario.node[8].veinsmobility  co2emission  ETV
vector 3747  IntersectionExampleScenario.node[9].veinsmobility  speed  ETV
vector 3748  IntersectionExampleScenario.node[9].veinsmobility  acceleration  ETV
vector 3749  IntersectionExampleScenario.node[9].veinsmobility  co2emission  ETV
vector 3752  IntersectionExampleScenario.node[10].veinsmobility  posx  ETV
vector 3753  IntersectionExampleScenario.node[10].veinsmobility  posy  ETV
vector 3754  IntersectionExampleScenario.node[10].veinsmobility  speed  ETV
vector 3755  IntersectionExampleScenario.node[10].veinsmobility  acceleration  ETV
vector 3756  IntersectionExampleScenario.node[10].veinsmobility  co2emission  ETV
vector 3759  IntersectionExampleScenario.node[11].veinsmobility  posx  ETV
vector 3760  IntersectionExampleScenario.node[11].veinsmobility  posy  ETV
vector 3761  IntersectionExampleScenario.node[11].veinsmobility  speed  ETV
vector 3762  IntersectionExampleScenario.node[11].veinsmobility  acceleration  ETV
vector 3763  IntersectionExampleScenario.node[11].veinsmobility  co2emission  ETV
vector 3766  IntersectionExampleScenario.node[12].veinsmobility  posx  ETV
vector 3767  IntersectionExampleScenario.node[12].veinsmobility  posy  ETV
vector 3768  IntersectionExampleScenario.node[12].veinsmobility  speed  ETV
vector 3769  IntersectionExampleScenario.node[12].veinsmobility  acceleration  ETV
vector 3770  IntersectionExampleScenario.node[12].veinsmobility  co2emission  ETV
vector 3773  IntersectionExampleScenario.node[13].veinsmobility  posx  ETV
vector 3774  IntersectionExampleScenario.node[13].veinsmobility  posy  ETV
vector 3775  IntersectionExampleScenario.node[13].veinsmobility  speed  ETV
vector 3776  IntersectionExampleScenario.node[13].veinsmobility  acceleration  ETV
vector 3777  IntersectionExampleScenario.node[13].veinsmobility  co2emission  ETV
vector 3780  IntersectionExampleScenario.node[14].veinsmobility  posx  ETV
vector 3781  IntersectionExampleScenario.node[14].veinsmobility  posy  ETV
vector 3787  IntersectionExampleScenario.node[15].veinsmobility  posx  ETV
vector 3788  IntersectionExampleScenario.node[15].veinsmobility  posy  ETV
vector 3782  IntersectionExampleScenario.node[14].veinsmobility  speed  ETV
vector 3789  IntersectionExampleScenario.node[15].veinsmobility  speed  ETV
vector 3783  IntersectionExampleScenario.node[14].veinsmobility  acceleration  ETV
vector 3784  IntersectionExampleScenario.node[14].veinsmobility  co2emission  ETV
vector 3790  IntersectionExampleScenario.node[15].veinsmobility  acceleration  ETV
vector 3791  IntersectionExampleScenario.node[15].veinsmobility  co2emission  ETV
3686	9214 4950 12 2988 1.75 42.5 164 0.973 11.200708441096 489.18991891622 2474.8953455387
3685	14164 4388 12 2988 1.75 42.5 164 -3.4318885803223 2.5 35.795072555542 256.41105506424
3684	18552 4854 9 2988 1.5 42.5 165 5.6500000953674 15.02499961853 2178.6360168457 29893.862464205
3683	23406 5176 6 2988 1.25 42.5 166 486.85000610352 731.96028137207 89258.956268311 48942401.419579
3682	28582 5169 6 2988 1.25 42.5 166 486.85000610352 785.82187652588 95010.405128479 56156656.093751
vector 3794  IntersectionExampleScenario.node[16].veinsmobility  posx  ETV
vector 3795  IntersectionExampleScenario.node[16].veinsmobility  posy  ETV
vector 3796  IntersectionExampleScenario.node[16].veinsmobility  speed  ETV
vector 3797  IntersectionExampleScenario.node[16].veinsmobility  acceleration  ETV
vector 3798  IntersectionExampleScenario.node[16].veinsmobility  co2emission  ETV
vector 3801  IntersectionExampleScenario.node[17].veinsmobility  posx  ETV
vector 3802  IntersectionExampleScenario.node[17].veinsmobility  posy  ETV
vector 3803  IntersectionExampleScenario.node[17].veinsmobility  speed  ETV
vector 3804  IntersectionExampleScenario.node[17].veinsmobility  acceleration  ETV
vector 3805  IntersectionExampleScenario.node[17].veinsmobility  co2emission  ETV
vector 3808  IntersectionExampleScenario.node[18].veinsmobility  posx  ETV
vector 3809  IntersectionExampleScenario.node[18].veinsmobility  posy  ETV
vector 3810  IntersectionExampleScenario.node[18].veinsmobility  speed  ETV
vector 3811  IntersectionExampleScenario.node[18].veinsmobility  acceleration  ETV
vector 3812  IntersectionExampleScenario.node[18].veinsmobility  co2emission  ETV
3728	34939 4750 318 3537 11.75 50 154 0.973 11.200708441096 456.89174691992 2340.6112176747
3727	39689 4521 318 3537 11.75 50 154 -3.306827545166 2.5 35.625318527222 213.7731003837
3726	44210 4648 303 3537 11.5 50 155 5.6500000953674 15.02499961853 2085.5376262665 28797.420663813
3725	48858 4941 288 3537 11.25 50 156 483.14999389648 734.0451965332 84212.546707153 46438286.100239
3724	53799 4939 288 3537 11.25 50 156 214.94219970703 486.85000610352 64080.497283936 27703403.704837
3714	58738 5210 225 3708 10 52.25 170 0.973 11.36141391502 530.9839669197 2710.0276782923
3713	63948 4854 225 3708 10 52.25 170 -4.5 2.5 37.15309715271 355.83677167294
3712	68802 5115 214 3708 9.75 52.25 171 5.4068503379822 15.25 2187.9039440155 29764.246120403
3711	73917 5453 203 3708 9.5 52.25 172 235.66687011719 483.14999389648 74679.113494873 33397211.761501
3710	79370 5444 203 3708 9.5 52.25 172 184.17810058594 483.22305297852 67174.630401611 28237654.246291
3721	84814 5190 262 3760 10.75 53 170 0.973 11.54047740176 507.9454194416 2529.4757314355
3720	90004 5131 262 3760 10.75 53 170 -4.4699249267578 2.5 37.15309715271 210.157976545
3719	95135 5197 249 3760 10.5 53 171 5.6500000953674 15.5 2306.3115735054 32028.359409192
3718	100332 5461 236 3760 10.25 53 172 483.14999389648 483.14999389648 83101.798950195 40150633.655574
3717	105793 5407 236 3760 10.25 53 172 161.1796875 732.90573120117 73792.858535767 36719885.22954
3693	111200 5808 37 3872 3.5 54.75 206 0.973 12.099024792222 589.65251359831 3184.5542966163
3692	117008 5428 37 3872 3.5 54.75 206 -7.8776445388794 4 40.038900375366 507.6300871309
3691	122436 5585 32 3872 3.25 54.75 207 0 16.27499961853 2168.8225958347 31233.1102877
3690	128021 6527 27 3872 3 54.75 208 486.63604736328 785.82187652588 115447.91190338 65999694.975311
3689	134548 6472 27 3872 3 54.75 208 239.04711914062 483.14999389648 92656.554840088 42250136.713741
3700	141020 5720 86 3887 5.75 55 198 0.973 11.648172402475 581.75541216987 2933.763368163
3699	146740 5274 86 3887 5.75 55 198 -6.9388580322266 4 39.869146347046 475.17270966563
3698	152014 5567 79 3887 5.5 55 199 0 15.682001113892 2214.1831126213 31972.689089445
3697	157581 6286 72 3887 5.25 55 200 184.17810058594 733.68310546875 90704.526138306 45237682.474232
3696	163867 6314 72 3887 5.25 55 200 486.85000610352 486.85000610352 97370.001220703 47404585.688598
3707	170181 5783 167 3977 8.5 56.5 193 0.973 11.648172402475 578.48187799966 2985.384528644
3706	175964 5675 167 3977 8.5 56.5 193 -4.5 2.5 40.208654403687 420.60587097733
3705	181639 5997 158 3977 8.25 56.5 194 0 15.853979110718 2254.0680415034 32026.795305459
3704	187636 6158 149 3977 8 56.5 195 169.95465087891 487.01312255859 78938.45413208 34065250.765417
3703	193794 6166 149 3977 8 56.5 195 238.99969482422 486.85000610352 86894.74130249 39715401.317278
vector 3815  IntersectionExampleScenario.node[19].veinsmobility  posx  ETV
vector 3816  IntersectionExampleScenario.node[19].veinsmobility  posy  ETV
vector 3817  IntersectionExampleScenario.node[19].veinsmobility  speed  ETV
vector 3822  IntersectionExampleScenario.node[20].veinsmobility  posx  ETV
vector 3823  IntersectionExampleScenario.node[20].veinsmobility  posy  ETV
vector 3818  IntersectionExampleScenario.node[19].veinsmobility  acceleration  ETV
vector 3819  IntersectionExampleScenario.node[19].veinsmobility  co2emission  ETV
vector 3824  IntersectionExampleScenario.node[20].veinsmobility  speed  ETV
vector 3825  IntersectionExampleScenario.node[20].veinsmobility  acceleration  ETV
vector 3826  IntersectionExampleScenario.node[20].veinsmobility  co2emission  ETV
3742	200752 5292 669 4257 17 60.75 176 0.973 10.916047529558 536.17710640034 2900.1955671692
3741	206044 5052 669 4257 17 60.75 176 -3.1737041473389 2.5 34.267293930054 330.35567753284
3740	211096 5334 650 4257 16.75 60.75 177 5.6500000953674 14.625 2189.6518998146 28321.698107667
3739	216430 5654 631 4257 16.5 60.75 178 184.17810058594 483.14999389648 71035.826751709 30164665.011279
3738	222084 5672 631 4257 16.5 60.75 178 486.85000610352 735.10661315918 95537.2787323 52301748.283933
vector 3829  IntersectionExampleScenario.node[21].veinsmobility  posx  ETV
vector 3830  IntersectionExampleScenario.node[21].veinsmobility  posy  ETV
vector 3831  IntersectionExampleScenario.node[21].veinsmobility  speed  ETV
vector 3832  IntersectionExampleScenario.node[21].veinsmobility  acceleration  ETV
vector 3833  IntersectionExampleScenario.node[21].veinsmobility  co2emission  ETV
3756	228152 4845 1135 4398 22.5 62.5 161 0.973 11.990504229548 489.06776083317 2591.7391078786
3755	232997 4804 1135 4398 22.5 62.5 161 -3.2657585144043 2.5 39.869146347046 191.78442513865
3754	237801 4920 1112 4398 22.25 62.5 162 5.6500000953674 16.125 2269.7301054001 32534.470837103
3753	242721 5195 1089 4398 22 62.5 163 170.48675537109 732.52264404297 71585.238708496 35831713.777929
3752	247916 5215 1089 4398 22 62.5 163 486.85000610352 486.85000610352 79356.550994873 38634737.336208
3749	253131 5541 711 4418 17.5 62.75 182 0.973 11.00486315618 526.16031257784 2608.0113804723
3748	258672 5414 711 4418 17.5 62.75 182 -4.5 2.5 34.267293930054 303.44044858235
3747	264086 5555 690 4418 17.25 62.75 183 5.6500000953674 14.75 2304.7465372086 29906.127227049
3746	269641 5845 669 4418 17 62.75 184 160.43438720703 486.85000610352 71496.813049316 30088337.684059
3745	275486 5870 669 4418 17 62.75 184 236.53863525391 486.85000610352 80583.626342773 36355132.496926
vector 3836  IntersectionExampleScenario.node[22].veinsmobility  posx  ETV
vector 3837  IntersectionExampleScenario.node[22].veinsmobility  posy  ETV
vector 3838  IntersectionExampleScenario.node[22].veinsmobility  speed  ETV
vector 3839  IntersectionExampleScenario.node[22].veinsmobility  acceleration  ETV
vector 3840  IntersectionExampleScenario.node[22].veinsmobility  co2emission  ETV
3735	281752 6384 427 4925 13.5 69 223 0.973 11.200708441096 573.83246731356 2688.0135170642
3734	288136 5749 427 4925 13.5 69 223 -8.6476802825928 4 35.795072555542 474.77576012592
3733	293885 6142 410 4925 13.25 69 224 0 15.02499961853 2207.0104308128 30119.387947842
3732	300027 7157 393 4925 13 69 225 235.04376220703 486.85000610352 100663.80142212 46177134.606936
3731	307184 7158 393 4925 13 69 225 483.14999389648 785.82187652588 124174.00324249 70578735.549929
3763	314342 5306 1392 4983 25.25 69.75 179 0.973 11.648172402475 536.96270058036 2892.9901506828
3762	319648 5311 1392 4983 25.25 69.75 179 -2.1675605773926 2.5000019073486 38.341367721558 289.81266811327
3761	324959 5537 1367 4983 25 69.75 180 3.3007092475891 15.64999961853 2224.0525848866 30161.811337984
3760	330496 5793 1342 4983 24.75 69.75 181 486.85000610352 486.85000610352 88119.851104736 42901150.048182
3759	336289 5783 1342 4983 24.75 69.75 181 235.17181396484 785.82187652588 94451.103233337 53470802.887235
vector 3843  IntersectionExampleScenario.node[23].veinsmobility  posx  ETV
vector 3844  IntersectionExampleScenario.node[23].veinsmobility  posy  ETV
vector 3845  IntersectionExampleScenario.node[23].veinsmobility  speed  ETV
vector 3846  IntersectionExampleScenario.node[23].veinsmobility  acceleration  ETV
vector 3847  IntersectionExampleScenario.node[23].veinsmobility  co2emission  ETV
vector 3850  IntersectionExampleScenario.node[24].veinsmobility  posx  ETV
vector 3851  IntersectionExampleScenario.node[24].veinsmobility  posy  ETV
vector 3852  IntersectionExampleScenario.node[24].veinsmobility  speed  ETV
vector 3857  IntersectionExampleScenario.node[25].veinsmobility  posx  ETV
vector 3858  IntersectionExampleScenario.node[25].veinsmobility  posy  ETV
vector 3853  IntersectionExampleScenario.node[24].veinsmobility  acceleration  ETV
vector 3854  IntersectionExampleScenario.node[24].veinsmobility  co2emission  ETV
vector 3859  IntersectionExampleScenario.node[25].veinsmobility  speed  ETV
vector 3860  IntersectionExampleScenario.node[25].veinsmobility  acceleration  ETV
vector 3861  IntersectionExampleScenario.node[25].veinsmobility  co2emission  ETV
vector 3864  IntersectionExampleScenario.node[26].veinsmobility  posx  ETV
vector 3865  IntersectionExampleScenario.node[26].veinsmobility  posy  ETV
vector 3866  IntersectionExampleScenario.node[26].veinsmobility  speed  ETV
vector 3867  IntersectionExampleScenario.node[26].veinsmobility  acceleration  ETV
vector 3868  IntersectionExampleScenario.node[26].veinsmobility  co2emission  ETV
vector 3871  IntersectionExampleScenario.node[27].veinsmobility  posx  ETV
vector 3872  IntersectionExampleScenario.node[27].veinsmobility  posy  ETV
vector 3873  IntersectionExampleScenario.node[27].veinsmobility  speed  ETV
vector 3874  IntersectionExampleScenario.node[27].veinsmobility  acceleration  ETV
vector 3875  IntersectionExampleScenario.node[27].veinsmobility  co2emission  ETV
3770	344052 6164 1558 5864 27 79.75 212 0.973 11.200708441096 560.26145879132 2656.4162898201
3769	350216 5488 1558 5864 27 79.75 212 -8.6544361114502 4 35.795072555542 473.04944408425
3768	355704 5935 1533 5864 26.75 79.75 213 0 15.02499961853 2171.2275187969 29467.158472319
3767	361639 6785 1508 5864 26.5 79.75 214 238.08221435547 483.14999389648 94953.338165283 43174587.450524
3766	368424 6830 1508 5864 26.5 79.75 214 184.17810058594 483.36395263672 88616.351928711 38673564.952875
vector 3878  IntersectionExampleScenario.node[28].veinsmobility  posx  ETV
vector 3879  IntersectionExampleScenario.node[28].veinsmobility  posy  ETV
vector 3880  IntersectionExampleScenario.node[28].veinsmobility  speed  ETV
vector 3881  IntersectionExampleScenario.node[28].veinsmobility  acceleration  ETV
vector 3882  IntersectionExampleScenario.node[28].veinsmobility  co2emission  ETV
3805	375650 5060 3229 6461 45.75 86.25 163 0.973 11.200708441096 495.3063607039 2505.4876603272
3804	380710 4589 3229 6461 45.75 86.25 163 -3.4297657012939 2.5 36.643835067749 259.31415789031
3803	385299 4953 3209 6461 45.5 86.25 164 5.6500000953674 15.02499961853 2189.3536458015 30413.535771379
3802	390252 5268 3188 6461 45.25 86.25 165 235.35314941406 483.14999389648 71212.804046631 31698640.397164
3801	395520 5262 3188 6461 45.25 86.25 165 184.17810058594 483.14999389648 65643.718933105 27886078.632578
vector 3885  IntersectionExampleScenario.node[29].veinsmobility  posx  ETV
vector 3886  IntersectionExampleScenario.node[29].veinsmobility  posy  ETV
vector 3892  IntersectionExampleScenario.node[30].veinsmobility  posx  ETV
vector 3893  IntersectionExampleScenario.node[30].veinsmobility  posy  ETV
vector 3887  IntersectionExampleScenario.node[29].veinsmobility  speed  ETV
vector 3888  IntersectionExampleScenario.node[29].veinsmobility  acceleration  ETV
vector 3889  IntersectionExampleScenario.node[29].veinsmobility  co2emission  ETV
vector 3894  IntersectionExampleScenario.node[30].veinsmobility  speed  ETV
vector 3895  IntersectionExampleScenario.node[30].veinsmobility  acceleration  ETV
vector 3896  IntersectionExampleScenario.node[30].veinsmobility  co2emission  ETV
3777	401574 6810 2037 6927 31.75 91.25 239 0.973 10.916047529558 578.41969498962 2559.3296201743
3776	408384 6014 2037 6927 31.75 91.25 239 -9.268856048584 4 34.606801986694 476.05911329532
3775	414398 6460 2010 6927 31.5 91.25 240 0 14.625 2183.7568573952 29158.5670466
3774	420858 7690 1983 6927 31.25 91.25 241 184.17810058594 483.36395263672 101180.52035522 44553642.635446
3773	428548 7651 1983 6927 31.25 91.25 241 486.85000610352 735.21826171875 126162.54338074 67182512.833729
3791	436199 6056 2854 7033 40.75 92.5 208 0.973 11.667349558805 590.66452406658 2978.2770988306
3790	442255 6034 2854 7033 40.75 92.5 208 -7.7750473022461 4 39.707822799683 482.76169160347
3789	448289 6155 2833 7033 40.5 92.5 209 0 15.676681518555 2200.9680358171 30658.489576562
3788	454444 6708 2812 7033 40.25 92.5 210 483.14999389648 785.82187652588 116344.46466827 66440068.048102
3787	461152 6709 2812 7033 40.25 92.5 210 483.14999389648 733.35684204102 110158.13182068 58879906.029893
vector 3899  IntersectionExampleScenario.node[31].veinsmobility  posx  ETV
vector 3900  IntersectionExampleScenario.node[31].veinsmobility  posy  ETV
vector 3901  IntersectionExampleScenario.node[31].veinsmobility  speed  ETV
vector 3902  IntersectionExampleScenario.node[31].veinsmobility  acceleration  ETV
vector 3903  IntersectionExampleScenario.node[31].veinsmobility  co2emission  ETV
3798	468257 5893 3150 7236 44.75 94.75 201 0.973 11.200708441096 575.6283540069 2895.2684557421
3797	474150 5842 3150 7236 44.75 94.75 201 -29.375438690186 4 37.32285118103 1251.3878665626
3796	479992 6088 3131 7236 44.5 94.75 202 0 15.237155914307 2178.8189959526 28430.459907388
3795	486080 6466 3112 7236 44.25 94.75 203 184.17810058594 483.24569702148 82827.973144531 35660109.941648
3794	492546 6482 3112 7236 44.25 94.75 203 486.85000610352 732.40824890137 107094.25950623 57511638.083949
vector 3906  IntersectionExampleScenario.node[32].veinsmobility  posx  ETV
vector 3907  IntersectionExampleScenario.node[32].veinsmobility  posy  ETV
vector 3913  IntersectionExampleScenario.node[33].veinsmobility  posx  ETV
vector 3914  IntersectionExampleScenario.node[33].veinsmobility  posy  ETV
vector 3908  IntersectionExampleScenario.node[32].veinsmobility  speed  ETV
vector 3909  IntersectionExampleScenario.node[32].veinsmobility  acceleration  ETV
vector 3910  IntersectionExampleScenario.node[32].veinsmobility  co2emission  ETV
vector 3915  IntersectionExampleScenario.node[33].veinsmobility  speed  ETV
vector 3916  IntersectionExampleScenario.node[33].veinsmobility  acceleration  ETV
vector 3917  IntersectionExampleScenario.node[33].veinsmobility  co2emission  ETV
3833	499820 4633 4356 7631 62 98.75 148 0.973 12.099024792222 489.10141331797 2763.5611970259
3832	504453 4231 4356 7631 62 98.75 148 -3.1056976318359 2.5 41.396924972534 212.47166516693
3831	508684 4528 4335 7631 61.75 98.75 149 5.6500000953674 16.27499961853 2208.6165647507 33545.385987184
3830	513212 4798 4314 7631 61.5 98.75 150 239.07543945312 785.82187652588 78547.69618988 45083488.677048
3829	518010 4801 4314 7631 61.5 98.75 150 483.14999389648 483.14999389648 72472.499084473 35015087.490326
vector 3920  IntersectionExampleScenario.node[34].veinsmobility  posx  ETV
vector 3921  IntersectionExampleScenario.node[34].veinsmobility  posy  ETV
vector 3922  IntersectionExampleScenario.node[34].veinsmobility  speed  ETV
vector 3923  IntersectionExampleScenario.node[34].veinsmobility  acceleration  ETV
vector 3924  IntersectionExampleScenario.node[34].veinsmobility  co2emission  ETV
3784	523207 7027 2854 8040 40.75 103.25 251 0.973 11.648172402475 625.9706438556 3000.4848292612
3783	530234 6065 2854 8040 40.75 103.25 251 -17.861282348633 4 38.511121749878 765.42530424192
3782	536299 6556 2833 8040 40.5 103.25 252 0 15.64999961853 2203.4727745056 31507.326414434
3781	542855 8106 2812 8040 40.25 103.25 253 236.75640869141 486.85000610352 114784.09631348 53196265.149254
3780	550961 8100 2812 8040 40.25 103.25 253 483.14999389648 785.82187652588 137775.99485016 77120227.941095
vector 3927  IntersectionExampleScenario.node[35].veinsmobility  posx  ETV
vector 3928  IntersectionExampleScenario.node[35].veinsmobility  posy  ETV
vector 3929  IntersectionExampleScenario.node[35].veinsmobility  speed  ETV
vector 3930  IntersectionExampleScenario.node[35].veinsmobility  acceleration  ETV
vector 3931  IntersectionExampleScenario.node[35].veinsmobility  co2emission  ETV
3812	559457 6561 3499 8237 49.5 105.5 225 0.973 11.648172402475 578.5879077314 2825.917391781
3811	566018 7044 3499 8237 49.5 105.5 225 -3.7472124099731 2.5 37.662351608276 318.91656464985
3810	573062 7065 3480 8237 49.25 105.5 226 0 15.64999961853 2204.0650991816 28974.618609107
3809	580127 7278 3461 8237 49 105.5 227 237.16632080078 486.85000610352 102038.56982422 46960988.403328
3808	587405 7267 3461 8237 49 105.5 227 483.00720214844 785.82187652588 125991.23828888 71880937.289705
3826	594672 5584 4200 8375 60 107 189 0.973 11.648172402475 556.38173089622 2871.7729634429
3825	600256 5637 4200 8375 60 107 189 -3.6346549987793 2.5 39.699392318726 305.48953641075
3824	605893 5903 4180 8375 59.75 107 190 2.7604026794434 15.64999961853 2198.9348359108 29231.495585983
3823	611796 6124 4161 8375 59.5 107 191 238.95367431641 486.85000610352 84890.942504883 38723557.762143
3822	617920 6128 4161 8375 59.5 107 191 483.06912231445 785.82187652588 107979.13245392 62859765.804677
vector 3934  IntersectionExampleScenario.node[36].veinsmobility  posx  ETV
vector 3935  IntersectionExampleScenario.node[36].veinsmobility  posy  ETV
vector 3936  IntersectionExampleScenario.node[36].veinsmobility  speed  ETV
vector 3937  IntersectionExampleScenario.node[36].veinsmobility  acceleration  ETV
vector 3938  IntersectionExampleScenario.node[36].veinsmobility  co2emission  ETV
3819	624444 6447 4161 9040 59.5 114.75 222 0.973 11.200708441096 568.86124900956 2673.2754597494
3818	630891 5854 4161 9040 59.5 114.75 222 -7.2451009750366 4 35.455564498901 450.04028043182
3817	636745 6222 4144 9040 59.25 114.75 223 0 15.02499961853 2188.3833551407 29677.119671322
3816	642967 7220 4127 9040 59 114.75 224 483.14999389648 734.97763061523 117147.10987854 62410023.100779
3815	650187 7197 4127 9040 59 114.75 224 184.17810058594 486.85000610352 93541.149505615 41108476.827871
vector 3941  IntersectionExampleScenario.node[37].veinsmobility  posx  ETV
vector 3942  IntersectionExampleScenario.node[37].veinsmobility  posy  ETV
vector 3943  IntersectionExampleScenario.node[37].veinsmobility  speed  ETV
3840	657613 5904 4631 9076 65.5 115.25 200 0.973 11.54047740176 567.46030133681 2857.7280833878
3839	663517 5991 4631 9076 65.5 115.25 200 -3.8277707099915 2.5 38.850629806519 360.16227724122
3838	669508 6146 4610 9076 65.25 115.25 201 0 15.5 2211.6620877795 30474.514222723
3837	675654 6525 4589 9076 65 115.25 202 483.14999389648 483.14999389648 97596.29876709 47153651.153639
3836	682179 6482 4589 9076 65 115.25 202 184.17810058594 732.19163513184 90954.807067871 45064479.651522
vector 3944  IntersectionExampleScenario.node[37].veinsmobility  acceleration  ETV
vector 3945  IntersectionExampleScenario.node[37].veinsmobility  co2emission  ETV
3854	688828 5293 5329 9255 74 117.75 176 0.973 11.810082123732 567.72494495621 3279.6204023017
3853	694121 5174 5329 9255 74 117.75 176 -3.893482208252 2.5 39.699392318726 374.32629959695
3852	699295 5409 5308 9255 73.75 117.75 177 4.8364171981812 15.875 2189.8408379555 29512.474520477
3851	704704 5762 5286 9255 73.5 117.75 178 235.576171875 483.14999389648 77899.433746338 35054797.615656
3850	710466 5740 5286 9255 73.5 117.75 178 184.17810058594 483.14999389648 71224.450317383 30247235.206637
3868	716206 5343 5516 9340 76 119 173 0.973 11.648172402475 538.80643165911 2958.1939398674
3867	721549 5057 5516 9340 76 119 173 -4.5 2.5 38.511121749878 321.58584821347
3866	726606 5406 5492 9340 75.75 119 174 5.6500000953674 15.64999961853 2296.3431158066 31746.645772971
3865	732012 5676 5467 9340 75.5 119 175 483.14999389648 483.14999389648 84551.248931885 40850935.40538
3864	737688 5629 5467 9340 75.5 119 175 166.078125 734.7049407959 76863.985748291 38341647.347887
vector 3948  IntersectionExampleScenario.node[38].veinsmobility  posx  ETV
vector 3949  IntersectionExampleScenario.node[38].veinsmobility  posy  ETV
vector 3950  IntersectionExampleScenario.node[38].veinsmobility  speed  ETV
vector 3951  IntersectionExampleScenario.node[38].veinsmobility  acceleration  ETV
vector 3952  IntersectionExampleScenario.node[38].veinsmobility  co2emission  ETV
vector 3955  IntersectionExampleScenario.node[39].veinsmobility  posx  ETV
vector 3956  IntersectionExampleScenario.node[39].veinsmobility  posy  ETV
vector 3957  IntersectionExampleScenario.node[39].veinsmobility  speed  ETV
vector 3958  IntersectionExampleScenario.node[39].veinsmobility  acceleration  ETV
vector 3959  IntersectionExampleScenario.node[39].veinsmobility  co2emission  ETV
vector 3962  IntersectionExampleScenario.node[40].veinsmobility  posx  ETV
vector 3963  IntersectionExampleScenario.node[40].veinsmobility  posy  ETV
3847	744261 6288 5139 9757 71.75 125.25 215 0.973 11.648172402475 589.45248966816 2964.0786063495
3846	750549 5602 5139 9757 71.75 125.25 215 -6.8117866516113 4 38.850629806519 469.91515502781
3845	756151 6048 5118 9757 71.5 125.25 216 0 15.64999961853 2207.1536474228 31385.929364603
3844	762199 7039 5097 9757 71.25 125.25 217 483.14999389648 785.82187652588 119836.39743805 68175332.474737
3843	769238 7040 5097 9757 71.25 125.25 217 483.14999389648 734.32060241699 113260.50947571 60196706.772487
vector 3964  IntersectionExampleScenario.node[40].veinsmobility  speed  ETV
3861	776355 6300 5375 9774 74.5 125.5 205 0.973 12.44402232946 615.24595598846 3329.3674220284
3860	782655 6235 5375 9774 74.5 125.5 205 -4.5 2.5 42.415441513062 476.20453540037
3859	788890 6519 5352 9774 74.25 125.5 206 0 16.75 2279.5488092043 33689.513078225
3858	795409 6700 5329 9774 74 125.5 207 235.4775390625 800.04531860352 108386.2881546 61072428.138455
3857	802109 6726 5329 9774 74 125.5 207 483.14999389648 483.14999389648 100012.04873657 48320820.73665
vector 3965  IntersectionExampleScenario.node[40].veinsmobility  acceleration  ETV
vector 3966  IntersectionExampleScenario.node[40].veinsmobility  co2emission  ETV
3875	809002 5825 5726 9927 78.25 127.75 199 0.973 12.099024792222 580.04950025741 3185.9565891603
3874	814827 6218 5726 9927 78.25 127.75 199 -3.2921028137207 2.5 40.038900375366 341.79064878709
3873	821045 6321 5702 9927 78 127.75 200 1.1567366123199 16.27499961853 2273.2065224648 31250.59998447
3872	827366 6523 5677 9927 77.75 127.75 201 237.61505126953 800.89454650879 106198.20832062 60492402.697546
3871	833889 6545 5677 9927 77.75 127.75 201 483.14999389648 483.14999389648 97113.148773193 46920217.237037
vector 3969  IntersectionExampleScenario.node[41].veinsmobility  posx  ETV
vector 3970  IntersectionExampleScenario.node[41].veinsmobility  posy  ETV
vector 3971  IntersectionExampleScenario.node[41].veinsmobility  speed  ETV
vector 3972  IntersectionExampleScenario.node[41].veinsmobility  acceleration  ETV
vector 3973  IntersectionExampleScenario.node[41].veinsmobility  co2emission  ETV
3889	840830 5229 6644 10122 88.25 130.5 170 0.973 11.54047740176 510.77662257704 2701.569317467
3888	846059 5153 6644 10122 88.25 130.5 170 -2.1157913208008 2.5 37.492597579956 237.68606224932
3887	851212 5366 6619 10122 88 130.5 171 5.6500000953674 15.5 2208.0937261581 29739.610802933
3886	856578 5616 6596 10122 87.75 130.5 172 238.59185791016 785.82187652588 90261.040214539 51533842.756199
3885	862194 5634 6596 10122 87.75 130.5 172 483.14999389648 483.14999389648 83101.798950195 40150633.655574
3896	867828 5577 6669 10274 88.5 132.5 177 0.973 10.579701886501 511.3638047704 2328.3572894252
3895	873405 5456 6669 10274 88.5 132.5 177 -4.5 2.5 37.32285118103 214.54245218641
3894	878861 5645 6644 10274 88.25 132.5 178 5.6500000953674 15.122408866882 2317.7778949738 31247.271559069
3893	884506 5854 6619 10274 88 132.5 179 235.87384033203 810.23281097412 95916.024856567 56260221.639526
3892	890360 5873 6619 10274 88 132.5 179 483.14999389648 483.14999389648 86483.848907471 41784671.071789
vector 3976  IntersectionExampleScenario.node[42].veinsmobility  posx  ETV
vector 3977  IntersectionExampleScenario.node[42].veinsmobility  posy  ETV
vector 3978  IntersectionExampleScenario.node[42].veinsmobility  speed  ETV
vector 3979  IntersectionExampleScenario.node[42].veinsmobility  acceleration  ETV
vector 3980  IntersectionExampleScenario.node[42].veinsmobility  co2emission  ETV
vector 3983  IntersectionExampleScenario.node[43].veinsmobility  posx  ETV
vector 3984  IntersectionExampleScenario.node[43].veinsmobility  posy  ETV
vector 3985  IntersectionExampleScenario.node[43].veinsmobility  speed  ETV
vector 3986  IntersectionExampleScenario.node[43].veinsmobility  acceleration  ETV
vector 3987  IntersectionExampleScenario.node[43].veinsmobility  co2emission  ETV
3917	897025 4848 7476 10462 97.25 135 152 0.973 12.553400930962 539.62626412474 3329.2067433689
3916	901873 4444 7476 10462 97.25 135 152 -3.4784488677979 2.5 43.264211654663 317.58238708316
3915	906317 4718 7449 10462 97 135 153 5.6500000953674 16.89999961853 2187.2268557549 33090.601533338
3914	911035 5073 7422 10462 96.75 135 154 184.17810058594 483.26748657227 61209.757232666 26014748.778667
3913	916108 5087 7422 10462 96.75 135 154 486.85000610352 733.69723510742 82634.41444397 45211244.194589
3882	921195 6469 6277 10711 84.25 138.5 218 0.973 11.450879080643 580.25880581607 2831.0884237253
3881	927664 6038 6277 10711 84.25 138.5 218 -7.1047692298889 4 37.32285118103 467.91455996605
3880	933702 6229 6254 10711 84 138.5 219 0 15.375 2201.5994673967 30694.719147362
3879	939931 7228 6231 10711 83.75 138.5 220 236.78112792969 486.85000610352 98566.007446289 45252751.119551
3878	947159 7229 6231 10711 83.75 138.5 220 483.14999389648 785.82187652588 121520.14208221 69144414.971839
3910	954388 5251 7449 10757 97 139.25 170 0.973 12.099024792222 544.21943134373 3128.8048772375
3909	959639 5171 7449 10757 97 139.25 170 -2.1541862487793 2.5 41.057416915894 294.26072724354
3908	964810 5422 7422 10757 96.75 139.25 171 4.2005348205566 16.27499961853 2222.2779979706 31318.139731978
3907	970232 5704 7397 10757 96.5 139.25 172 486.85000610352 486.85000610352 83738.201049805 40767943.692195
3906	975936 5675 7397 10757 96.5 139.25 172 236.00366210938 785.82187652588 90049.210655212 51184379.832491
vector 3990  IntersectionExampleScenario.node[44].veinsmobility  posx  ETV
vector 3991  IntersectionExampleScenario.node[44].veinsmobility  posy  ETV
vector 3992  IntersectionExampleScenario.node[44].veinsmobility  speed  ETV
vector 3993  IntersectionExampleScenario.node[44].veinsmobility  acceleration  ETV
vector 3994  IntersectionExampleScenario.node[44].veinsmobility  co2emission  ETV
vector 3997  IntersectionExampleScenario.node[45].veinsmobility  posx  ETV
vector 3998  IntersectionExampleScenario.node[45].veinsmobility  posy  ETV
vector 3999  IntersectionExampleScenario.node[45].veinsmobility  speed  ETV
vector 4000  IntersectionExampleScenario.node[45].veinsmobility  acceleration  ETV
vector 4001  IntersectionExampleScenario.node[45].veinsmobility  co2emission  ETV
vector 4004  IntersectionExampleScenario.node[46].veinsmobility  posx  ETV
vector 4005  IntersectionExampleScenario.node[46].veinsmobility  posy  ETV
vector 4006  IntersectionExampleScenario.node[46].veinsmobility  speed  ETV
vector 4007  IntersectionExampleScenario.node[46].veinsmobility  acceleration  ETV
vector 4008  IntersectionExampleScenario.node[46].veinsmobility  co2emission  ETV
3903	982799 6670 7121 11368 93.5 149.25 224 0.973 11.648172402475 599.45504106191 2996.2807122269
3902	989469 5943 7121 11368 93.5 149.25 224 -6.8118047714233 4 38.850629806519 473.4152716302
3901	995412 6420 7098 11368 93.25 149.25 225 0 15.64999961853 2219.7540524006 31693.656059221
3900	1001832 7511 7075 11368 93 149.25 226 483.14999389648 483.14999389648 109191.89862061 52756065.152091
3899	1009343 7481 7075 11368 93 149.25 226 184.17810058594 735.09378051758 103075.92599487 51191503.823255
3924	1016824 5682 8040 11413 103.25 150 188 0.973 12.553400930962 578.00031413792 3443.998144419
3923	1022506 5807 8040 11413 103.25 150 188 -2.1187934875488 2.5 42.585195541382 339.46888080873
3922	1028313 6047 8018 11413 103 150 189 1.5406526327133 16.89999961853 2215.6631911993 30962.344106314
3921	1034360 6343 7995 11413 102.75 150 190 483.14999389648 734.72570800781 99789.295730591 53410448.254886
3920	1040703 6325 7995 11413 102.75 150 190 184.17810058594 486.85000610352 77411.100738525 33344510.888512
3931	1047028 6032 8191 11548 105 152.25 190 0.97223939240464 11.648172402475 557.51837065395 2884.8949793928
3930	1053060 5942 8191 11548 105 152.25 190 -4.5 2.5 38.680875778198 327.75475722112
3929	1059002 6173 8168 11548 104.75 152.25 191 3.9820580482483 15.64999961853 2302.649787426 31074.691914239
3928	1065175 6430 8145 11548 104.5 152.25 192 483.14999389648 483.14999389648 92764.798828125 44819311.987617
3927	1071605 6403 8145 11548 104.5 152.25 192 164.94219970703 735.35139465332 84106.120239258 41463096.953466
vector 4011  IntersectionExampleScenario.node[47].veinsmobility  posx  ETV
vector 4012  IntersectionExampleScenario.node[47].veinsmobility  posy  ETV
vector 4013  IntersectionExampleScenario.node[47].veinsmobility  speed  ETV
vector 4014  IntersectionExampleScenario.node[47].veinsmobility  acceleration  ETV
vector 4015  IntersectionExampleScenario.node[47].veinsmobility  co2emission  ETV
vector 4018  IntersectionExampleScenario.node[48].veinsmobility  posx  ETV
vector 4019  IntersectionExampleScenario.node[48].veinsmobility  posy  ETV
vector 4020  IntersectionExampleScenario.node[48].veinsmobility  speed  ETV
vector 4021  IntersectionExampleScenario.node[48].veinsmobility  acceleration  ETV
vector 4022  IntersectionExampleScenario.node[48].veinsmobility  co2emission  ETV
3938	1078800 5679 8563 11711 109 154.75 184 0.973 11.810082123732 569.6094536125 3200.4853684742
3937	1084479 5785 8563 11711 109 154.75 184 -3.4073486328125 2.5 39.699392318726 348.13380184894
3936	1090264 5885 8538 11711 108.75 154.75 185 4.2711300849915 15.875 2242.1614146233 30069.437023777
3935	1096149 6210 8513 11711 108.5 154.75 186 238.76287841797 483.14999389648 81962.651580811 37063446.673454
3934	1102359 6222 8513 11711 108.5 154.75 186 168.36016845703 483.28515625 73506.693939209 31048660.01315
vector 4025  IntersectionExampleScenario.node[49].veinsmobility  posx  ETV
vector 4026  IntersectionExampleScenario.node[49].veinsmobility  posy  ETV
vector 4027  IntersectionExampleScenario.node[49].veinsmobility  speed  ETV
vector 4028  IntersectionExampleScenario.node[49].veinsmobility  acceleration  ETV
vector 4029  IntersectionExampleScenario.node[49].veinsmobility  co2emission  ETV
3945	1108977 5676 9095 12069 115.5 160 179 0.973 11.90022389248 562.86840992329 3084.5552936542
3944	1114653 5296 9095 12069 115.5 160 179 -7.26416015625 4 39.699392318726 488.74838165171
3943	1119949 5596 9076 12069 115.25 160 180 0 16 2217.2996735573 32035.834915318
3942	1125545 6067 9057 12069 115 160 181 184.17810058594 734.53973388672 81782.993865967 41069752.685428
3941	1131612 6096 9057 12069 115 160 181 486.85000610352 486.85000610352 88119.851104736 42901150.048182
vector 4032  IntersectionExampleScenario.node[50].veinsmobility  posx  ETV
vector 4033  IntersectionExampleScenario.node[50].veinsmobility  posy  ETV
3952	1137860 5314 9392 12120 119.75 160.75 165 0.973 12.353032912318 562.53303485767 3241.2169877253
3951	1143174 4916 9392 12120 119.75 160.75 165 -4.5 2.5 42.585195541382 413.12612183402
3950	1148090 5347 9375 12120 119.5 160.75 166 2.6113872528076 16.625 2230.6412041187 32800.008181211
3949	1153437 5621 9357 12120 119.25 160.75 167 179.81719970703 486.85000610352 66913.764129639 28649752.523997
3948	1159058 5629 9357 12120 119.25 160.75 167 235.64569091797 486.85000610352 73337.914428711 33156876.821631
vector 4039  IntersectionExampleScenario.node[51].veinsmobility  posx  ETV
vector 4040  IntersectionExampleScenario.node[51].veinsmobility  posy  ETV
vector 4034  IntersectionExampleScenario.node[50].veinsmobility  speed  ETV
vector 4035  IntersectionExampleScenario.node[50].veinsmobility  acceleration  ETV
vector 4036  IntersectionExampleScenario.node[50].veinsmobility  co2emission  ETV
vector 4041  IntersectionExampleScenario.node[51].veinsmobility  speed  ETV
vector 4042  IntersectionExampleScenario.node[51].veinsmobility  acceleration  ETV
vector 4043  IntersectionExampleScenario.node[51].veinsmobility  co2emission  ETV
3959	1165327 5361 9598 12412 122.75 164.25 167 0.973 11.200708441096 540.67297125858 3121.8733917154
3958	1170688 5043 9598 12412 122.75 164.25 167 -3.727424621582 2.5 36.813589096069 290.39921154353
3957	1175731 5457 9581 12412 122.5 164.25 168 5.6500000953674 15.02499961853 2273.1441478729 31470.714372614
3956	1181188 5693 9563 12412 122.25 164.25 169 169.22265625 732.93043518066 74444.651565552 37355992.951744
3955	1186881 5720 9563 12412 122.25 164.25 169 486.85000610352 486.85000610352 82277.651031494 40056874.906866
vector 4046  IntersectionExampleScenario.node[52].veinsmobility  posx  ETV
vector 4047  IntersectionExampleScenario.node[52].veinsmobility  posy  ETV
vector 4048  IntersectionExampleScenario.node[52].veinsmobility  speed  ETV
vector 4049  IntersectionExampleScenario.node[52].veinsmobility  acceleration  ETV
vector 4050  IntersectionExampleScenario.node[52].veinsmobility  co2emission  ETV
3973	1192997 5257 10084 12860 130 169.5 159 0.973 11.450879080643 481.544034384 2509.7403898573
3972	1198254 5148 10084 12860 130 169.5 159 -3.3788223266602 2.5 36.98334312439 227.41375879333
3971	1203402 5151 10065 12860 129.75 169.5 160 5.6500000953674 15.375 2199.6631622314 31067.774092068
3970	1208553 5444 10046 12860 129.5 169.5 161 184.17810058594 486.87594604492 64054.07711792 27275396.019619
3969	1213997 5463 10046 12860 129.5 169.5 161 238.673828125 486.85000610352 69922.103485107 31322588.313853
vector 4053  IntersectionExampleScenario.node[53].veinsmobility  posx  ETV
vector 4054  IntersectionExampleScenario.node[53].veinsmobility  posy  ETV
vector 4055  IntersectionExampleScenario.node[53].veinsmobility  speed  ETV
vector 4056  IntersectionExampleScenario.node[53].veinsmobility  acceleration  ETV
vector 4057  IntersectionExampleScenario.node[53].veinsmobility  co2emission  ETV
3987	1219856 5131 10462 13222 135 173.5 155 0.973 11.648172402475 489.40417258284 2674.8742866716
3986	1224987 4816 10462 13222 135 173.5 155 -3.1261329650879 2.5 38.511121749878 216.72105976913
3985	1229803 5068 10443 13222 134.75 173.5 156 5.6500000953674 15.64999961853 2223.4154987335 32342.514155503
3984	1234871 5338 10423 13222 134.5 173.5 157 486.85000610352 486.85000610352 76435.450958252 37212599.76555
3983	1240209 5327 10423 13222 134.5 173.5 157 235.20770263672 785.82187652588 81749.417945862 46731449.063923
vector 4060  IntersectionExampleScenario.node[54].veinsmobility  posx  ETV
vector 4061  IntersectionExampleScenario.node[54].veinsmobility  posy  ETV
vector 4062  IntersectionExampleScenario.node[54].veinsmobility  speed  ETV
vector 4063  IntersectionExampleScenario.node[54].veinsmobility  acceleration  ETV
vector 4064  IntersectionExampleScenario.node[54].veinsmobility  co2emission  ETV
vector 4067  IntersectionExampleScenario.node[55].veinsmobility  posx  ETV
vector 4068  IntersectionExampleScenario.node[55].veinsmobility  posy  ETV
vector 4069  IntersectionExampleScenario.node[55].veinsmobility  speed  ETV
vector 4070  IntersectionExampleScenario.node[55].veinsmobility  acceleration  ETV
vector 4071  IntersectionExampleScenario.node[55].veinsmobility  co2emission  ETV
vector 4074  IntersectionExampleScenario.node[56].veinsmobility  posx  ETV
vector 4075  IntersectionExampleScenario.node[56].veinsmobility  posy  ETV
vector 4076  IntersectionExampleScenario.node[56].veinsmobility  speed  ETV
vector 4081  IntersectionExampleScenario.node[57].veinsmobility  posx  ETV
vector 4082  IntersectionExampleScenario.node[57].veinsmobility  posy  ETV
vector 4077  IntersectionExampleScenario.node[56].veinsmobility  acceleration  ETV
vector 4078  IntersectionExampleScenario.node[56].veinsmobility  co2emission  ETV
vector 4083  IntersectionExampleScenario.node[57].veinsmobility  speed  ETV
vector 4084  IntersectionExampleScenario.node[57].veinsmobility  acceleration  ETV
vector 4085  IntersectionExampleScenario.node[57].veinsmobility  co2emission  ETV
vector 4088  IntersectionExampleScenario.node[58].veinsmobility  posx  ETV
vector 4089  IntersectionExampleScenario.node[58].veinsmobility  posy  ETV
vector 4090  IntersectionExampleScenario.node[58].veinsmobility  speed  ETV
vector 4091  IntersectionExampleScenario.node[58].veinsmobility  acceleration  ETV
vector 4092  IntersectionExampleScenario.node[58].veinsmobility  co2emission  ETV
vector 4095  IntersectionExampleScenario.node[59].veinsmobility  posx  ETV
vector 4096  IntersectionExampleScenario.node[59].veinsmobility  posy  ETV
vector 4097  IntersectionExampleScenario.node[59].veinsmobility  speed  ETV
3966	1247745 7074 9791 14338 125.75 184.25 235 0.973 11.648172402475 601.80641258103 2942.3228397118
3965	1254819 6409 9791 14338 125.75 184.25 235 -7.4922709465027 4 38.171613693237 479.41813793154
3964	1261228 6739 9774 14338 125.5 184.25 236 0 15.64999961853 2175.1208316088 30519.903061611
3963	1267967 7969 9757 14338 125.25 184.25 237 237.46997070312 483.14999389648 106337.762146 48763942.420231
3962	1275936 8016 9757 14338 125.25 184.25 237 184.17810058594 483.36395263672 99762.948638916 44017114.570824
vector 4098  IntersectionExampleScenario.node[59].veinsmobility  acceleration  ETV
vector 4099  IntersectionExampleScenario.node[59].veinsmobility  co2emission  ETV
vector 4102  IntersectionExampleScenario.node[60].veinsmobility  posx  ETV
vector 4103  IntersectionExampleScenario.node[60].veinsmobility  posy  ETV
vector 4104  IntersectionExampleScenario.node[60].veinsmobility  speed  ETV
vector 4105  IntersectionExampleScenario.node[60].veinsmobility  acceleration  ETV
vector 4106  IntersectionExampleScenario.node[60].veinsmobility  co2emission  ETV
4015	1284515 5185 11597 15067 153 191.75 156 0.973 11.54047740176 464.21906764276 2334.0371168052
4014	1289700 4639 11597 15067 153 191.75 156 -3.3398857116699 2.5 37.15309715271 186.6448788828
4013	1294339 5103 11580 15067 152.75 191.75 157 5.6500000953674 15.5 2213.6558437347 31783.54138806
4012	1299442 5373 11563 15067 152.5 191.75 158 483.14999389648 483.14999389648 76337.699035645 36882558.823143
4011	1304815 5337 11563 15067 152.5 191.75 158 184.17810058594 732.48867797852 70860.174743652 35963111.512037
vector 4109  IntersectionExampleScenario.node[61].veinsmobility  posx  ETV
vector 4110  IntersectionExampleScenario.node[61].veinsmobility  posy  ETV
vector 4111  IntersectionExampleScenario.node[61].veinsmobility  speed  ETV
vector 4112  IntersectionExampleScenario.node[61].veinsmobility  acceleration  ETV
vector 4113  IntersectionExampleScenario.node[61].veinsmobility  co2emission  ETV
3980	1310548 7373 10404 15390 134.25 195.25 245 0.973 11.648172402475 618.53907544794 2988.7891696184
3979	1317921 6493 10404 15390 134.25 195.25 245 -25.836837768555 4 38.341367721558 1067.6286137876
3978	1324414 6913 10385 15390 134 195.25 246 0 15.64999961853 2201.0034770966 31475.639857061
3977	1331327 8393 10366 15390 133.75 195.25 247 483.14999389648 785.82187652588 134800.08647919 75647237.460134
3976	1339720 8394 10366 15390 133.75 195.25 247 483.14999389648 732.70495605469 127712.99728394 67143470.542735
3994	1348114 6692 10986 15601 143 197.75 220 0.973 12.099024792222 608.64082808914 3218.9654582024
3993	1354806 6291 10986 15601 143 197.75 220 -7.6212306022644 4 40.548154830933 517.21105317224
3992	1361097 6418 10969 15601 142.75 197.75 221 0 16.27499961853 2188.4666973352 31706.443591469
3991	1367515 7520 10952 15601 142.5 197.75 222 184.17810058594 483.24322509766 92967.138275146 40893978.879154
3990	1375035 7547 10952 15601 142.5 197.75 222 486.85000610352 735.08880615234 116119.07897949 61771016.038022
vector 4116  IntersectionExampleScenario.node[62].veinsmobility  posx  ETV
vector 4117  IntersectionExampleScenario.node[62].veinsmobility  posy  ETV
vector 4118  IntersectionExampleScenario.node[62].veinsmobility  speed  ETV
vector 4123  IntersectionExampleScenario.node[63].veinsmobility  posx  ETV
vector 4124  IntersectionExampleScenario.node[63].veinsmobility  posy  ETV
vector 4119  IntersectionExampleScenario.node[62].veinsmobility  acceleration  ETV
vector 4120  IntersectionExampleScenario.node[62].veinsmobility  co2emission  ETV
vector 4125  IntersectionExampleScenario.node[63].veinsmobility  speed  ETV
4008	1383207 6447 11308 15777 148.25 199.75 207 0.97223939240464 11.648172402475 569.59768787396 2843.8641672029
4007	1389654 6719 11308 15777 148.25 199.75 207 -4.2305250167847 2.5 38.680875778198 318.11137448641
4006	1396373 7049 11292 15777 148 199.75 208 1.3828219175339 15.64999961853 2207.601757288 29047.124371399
4005	1403422 7088 11275 15777 147.75 199.75 209 483.00793457031 785.82187652588 116693.436409 67066446.43674
4004	1410510 7095 11275 15777 147.75 199.75 209 483.14999389648 734.14094543457 109453.43405151 58387202.858625
vector 4130  IntersectionExampleScenario.node[64].veinsmobility  posx  ETV
vector 4131  IntersectionExampleScenario.node[64].veinsmobility  posy  ETV
vector 4126  IntersectionExampleScenario.node[63].veinsmobility  acceleration  ETV
vector 4127  IntersectionExampleScenario.node[63].veinsmobility  co2emission  ETV
vector 4132  IntersectionExampleScenario.node[64].veinsmobility  speed  ETV
vector 4133  IntersectionExampleScenario.node[64].veinsmobility  acceleration  ETV
vector 4134  IntersectionExampleScenario.node[64].veinsmobility  co2emission  ETV
vector 4137  IntersectionExampleScenario.node[65].veinsmobility  posx  ETV
vector 4138  IntersectionExampleScenario.node[65].veinsmobility  posy  ETV
4043	1418320 5257 12181 15910 161.5 201 159 0.973 11.226228945876 495.42719426943 2696.5626920179
4042	1423577 4966 12181 15910 161.5 201 159 -3.4780235290527 2.5 36.643835067749 232.60430311377
4041	1428543 5208 12160 15910 161.25 201 160 5.6500000953674 15.06077003479 2219.2279376984 31337.302041303
4040	1433751 5448 12139 15910 161 201 161 184.17810058594 733.85903930664 72281.372329712 36694431.864866
4039	1439199 5472 12139 15910 161 201 161 486.85000610352 486.85000610352 78382.850982666 38160691.479322
vector 4139  IntersectionExampleScenario.node[65].veinsmobility  speed  ETV
vector 4140  IntersectionExampleScenario.node[65].veinsmobility  acceleration  ETV
vector 4141  IntersectionExampleScenario.node[65].veinsmobility  co2emission  ETV
4029	1444915 5710 11933 16084 158 202.5 179 0.973 11.200708441096 510.74940713774 2536.1275753024
4028	1450625 5666 11933 16084 158 202.5 179 -2.022575378418 2.5 35.795072555542 234.05606740152
4027	1456291 5981 11916 16084 157.75 202.5 180 5.6500000953674 15.02499961853 2205.7652025223 28599.909906314
4026	1462272 6139 11898 16084 157.5 202.5 181 483.11804199219 785.82187652588 102853.63895416 60293173.907949
4025	1468411 6134 11898 16084 157.5 202.5 181 483.14999389648 733.75932312012 96249.028198242 52224154.378427
vector 4144  IntersectionExampleScenario.node[66].veinsmobility  posx  ETV
vector 4145  IntersectionExampleScenario.node[66].veinsmobility  posy  ETV
vector 4146  IntersectionExampleScenario.node[66].veinsmobility  speed  ETV
vector 4147  IntersectionExampleScenario.node[66].veinsmobility  acceleration  ETV
vector 4148  IntersectionExampleScenario.node[66].veinsmobility  co2emission  ETV
vector 4151  IntersectionExampleScenario.node[67].veinsmobility  posx  ETV
vector 4152  IntersectionExampleScenario.node[67].veinsmobility  posy  ETV
vector 4153  IntersectionExampleScenario.node[67].veinsmobility  speed  ETV
vector 4154  IntersectionExampleScenario.node[67].veinsmobility  acceleration  ETV
vector 4155  IntersectionExampleScenario.node[67].veinsmobility  co2emission  ETV
vector 4158  IntersectionExampleScenario.node[68].veinsmobility  posx  ETV
vector 4159  IntersectionExampleScenario.node[68].veinsmobility  posy  ETV
4001	1475489 7377 11215 16738 146.75 208.25 247 0.97223939240464 11.810082123732 619.64697447566 3077.5524756231
4000	1482866 6757 11215 16738 146.75 208.25 247 -8.1579990386963 4 38.680875778198 505.71756585698
3999	1489623 6961 11200 16738 146.5 208.25 248 0 15.875 2183.416305542 30925.896823
3998	1496584 8396 11185 16738 146.25 208.25 249 486.85000610352 734.74661254883 129465.70199585 68400111.344378
3997	1504980 8458 11185 16738 146.25 208.25 249 486.63604736328 785.82187652588 136043.44464874 76377705.339188
vector 4160  IntersectionExampleScenario.node[68].veinsmobility  speed  ETV
vector 4161  IntersectionExampleScenario.node[68].veinsmobility  acceleration  ETV
vector 4162  IntersectionExampleScenario.node[68].veinsmobility  co2emission  ETV
vector 4165  IntersectionExampleScenario.node[69].veinsmobility  posx  ETV
vector 4166  IntersectionExampleScenario.node[69].veinsmobility  posy  ETV
vector 4167  IntersectionExampleScenario.node[69].veinsmobility  speed  ETV
vector 4168  IntersectionExampleScenario.node[69].veinsmobility  acceleration  ETV
vector 4169  IntersectionExampleScenario.node[69].veinsmobility  co2emission  ETV
4022	1514078 6919 11677 16916 154.25 209.75 223 0.973 11.450879080643 570.54769164417 2780.0430492815
4021	1520997 7195 11677 16916 154.25 209.75 223 -3.8194859027863 2.5000009536743 37.32285118103 328.96604644405
4020	1528192 7395 11660 16916 154 209.75 224 0 15.375 2203.0374257769 28867.340875103
4019	1535587 7645 11643 16916 153.75 209.75 225 237.74230957031 486.85000610352 101063.26144409 46483228.559783
4018	1543232 7634 11643 16916 153.75 209.75 225 483.1330871582 785.82187652588 125038.48506927 71441364.79446
vector 4172  IntersectionExampleScenario.node[70].veinsmobility  posx  ETV
vector 4173  IntersectionExampleScenario.node[70].veinsmobility  posy  ETV
vector 4174  IntersectionExampleScenario.node[70].veinsmobility  speed  ETV
vector 4175  IntersectionExampleScenario.node[70].veinsmobility  acceleration  ETV
vector 4176  IntersectionExampleScenario.node[70].veinsmobility  co2emission  ETV
4050	1551262 5662 12668 17168 167.25 211.75 179 0.973 11.810082123732 563.96748367736 3172.4309530208
4049	1556924 5561 12668 17168 167.25 211.75 179 -4.1170196533203 2.5 39.869146347046 358.75678197971
4048	1562485 5792 12645 17168 167 211.75 180 4.1394295692444 15.875 2192.190264225 29515.994983476
4047	1568277 6148 12622 17168 166.75 211.75 181 486.85000610352 734.9683380127 96236.476593018 52141380.463763
4046	1574425 6143 12622 17168 166.75 211.75 181 486.85000610352 785.82187652588 102937.40828705 60296928.915456
vector 4179  IntersectionExampleScenario.node[71].veinsmobility  posx  ETV
vector 4180  IntersectionExampleScenario.node[71].veinsmobility  posy  ETV
vector 4181  IntersectionExampleScenario.node[71].veinsmobility  speed  ETV
vector 4182  IntersectionExampleScenario.node[71].veinsmobility  acceleration  ETV
vector 4183  IntersectionExampleScenario.node[71].veinsmobility  co2emission  ETV
vector 4186  IntersectionExampleScenario.node[72].veinsmobility  posx  ETV
vector 4187  IntersectionExampleScenario.node[72].veinsmobility  posy  ETV
vector 4188  IntersectionExampleScenario.node[72].veinsmobility  speed  ETV
vector 4189  IntersectionExampleScenario.node[72].veinsmobility  acceleration  ETV
vector 4190  IntersectionExampleScenario.node[72].veinsmobility  co2emission  ETV
4036	1581360 7155 12160 18080 161.25 220 236 0.973 11.200708441096 594.72228495814 2818.8670335264
4035	1588515 6595 12160 18080 161.25 220 236 -7.1445960998535 4 35.625318527222 460.4724463021
4034	1595110 6933 12139 18080 161 220 237 0 15.02499961853 2217.1987526417 30069.561451469
4033	1602043 8091 12120 18080 160.75 220 238 483.14999389648 483.14999389648 114989.69854736 55557272.151317
4032	1610134 8061 12120 18080 160.75 220 238 184.17810058594 734.74969482422 108723.78060913 54002296.32038
vector 4193  IntersectionExampleScenario.node[73].veinsmobility  posx  ETV
vector 4194  IntersectionExampleScenario.node[73].veinsmobility  posy  ETV
4085	1618347 5426 13796 18195 179.25 221.25 169 0.973 11.648172402475 531.77450436283 2793.81588894
4084	1623773 5530 13796 18195 179.25 221.25 169 -2.1481971740723 2.5000019073486 39.99436378479 259.8136352173
4083	1629303 5613 13767 18195 179 221.25 170 5.4013867378235 15.691492080688 2220.8894586563 30850.945538099
4082	1634916 5814 13738 18195 178.75 221.25 171 483.14999389648 483.14999389648 82618.648956299 39917199.738971
4081	1640730 5779 13738 18195 178.75 221.25 171 184.17810058594 733.97103881836 76440.835144043 38270431.3462
vector 4195  IntersectionExampleScenario.node[73].veinsmobility  speed  ETV
vector 4200  IntersectionExampleScenario.node[74].veinsmobility  posx  ETV
vector 4201  IntersectionExampleScenario.node[74].veinsmobility  posy  ETV
vector 4196  IntersectionExampleScenario.node[73].veinsmobility  acceleration  ETV
vector 4197  IntersectionExampleScenario.node[73].veinsmobility  co2emission  ETV
vector 4202  IntersectionExampleScenario.node[74].veinsmobility  speed  ETV
vector 4203  IntersectionExampleScenario.node[74].veinsmobility  acceleration  ETV
vector 4204  IntersectionExampleScenario.node[74].veinsmobility  co2emission  ETV
vector 4207  IntersectionExampleScenario.node[75].veinsmobility  posx  ETV
vector 4208  IntersectionExampleScenario.node[75].veinsmobility  posy  ETV
vector 4214  IntersectionExampleScenario.node[76].veinsmobility  posx  ETV
vector 4215  IntersectionExampleScenario.node[76].veinsmobility  posy  ETV
vector 4209  IntersectionExampleScenario.node[75].veinsmobility  speed  ETV
vector 4216  IntersectionExampleScenario.node[76].veinsmobility  speed  ETV
vector 4210  IntersectionExampleScenario.node[75].veinsmobility  acceleration  ETV
vector 4211  IntersectionExampleScenario.node[75].veinsmobility  co2emission  ETV
vector 4217  IntersectionExampleScenario.node[76].veinsmobility  acceleration  ETV
vector 4218  IntersectionExampleScenario.node[76].veinsmobility  co2emission  ETV
4092	1647941 5682 14045 18582 181.5 224.75 174 0.973 11.450879080643 562.90153734699 3167.0564098153
4091	1653623 5457 14045 18582 181.5 224.75 174 -4.5 2.5 37.15309715271 381.18797150869
4090	1659080 5664 14016 18582 181.25 224.75 175 5.6500000953674 15.375 2281.4628572464 31024.397734132
4089	1664744 5976 13987 18582 181 224.75 176 483.14999389648 735.40687561035 93746.185348511 50968258.474068
4088	1670720 5958 13987 18582 181 224.75 176 167.29217529297 487.04486083984 69130.280944824 29221785.110816
vector 4221  IntersectionExampleScenario.node[77].veinsmobility  posx  ETV
vector 4222  IntersectionExampleScenario.node[77].veinsmobility  posy  ETV
vector 4228  IntersectionExampleScenario.node[78].veinsmobility  posx  ETV
vector 4229  IntersectionExampleScenario.node[78].veinsmobility  posy  ETV
vector 4223  IntersectionExampleScenario.node[77].veinsmobility  speed  ETV
vector 4224  IntersectionExampleScenario.node[77].veinsmobility  acceleration  ETV
vector 4225  IntersectionExampleScenario.node[77].veinsmobility  co2emission  ETV
vector 4230  IntersectionExampleScenario.node[78].veinsmobility  speed  ETV
vector 4231  IntersectionExampleScenario.node[78].veinsmobility  acceleration  ETV
vector 4232  IntersectionExampleScenario.node[78].veinsmobility  co2emission  ETV
4106	1677470 5161 14793 19018 189 228.5 159 0.973 11.485370421406 483.59219159959 2651.5717355396
4105	1682631 5066 14793 19018 189 228.5 159 -3.360466003418 2.5 37.32285118103 231.73739561922
4104	1687697 5154 14768 19018 188.75 228.5 160 5.6500000953674 15.423141479492 2204.7376194 31225.128458071
4103	1692851 5461 14743 19018 188.5 228.5 161 483.14999389648 732.53575134277 86285.22618103 47207357.414141
4102	1698312 5443 14743 19018 188.5 228.5 161 184.17810058594 486.86480712891 64071.323120117 27288567.290127
4071	1703755 6378 13584 19111 177.25 229.25 209 0.973 12.553400930962 617.41150173155 3541.0990765321
4070	1710133 6061 13584 19111 177.25 229.25 209 -7.0812187194824 4 42.754949569702 524.36834847776
4069	1716194 6120 13559 19111 177 229.25 210 0 16.89999961853 2195.7866268158 32927.063031737
4068	1722314 7162 13534 19111 176.75 229.25 211 483.14999389648 785.82187652588 116422.76447296 66181908.920113
4067	1729476 7169 13534 19111 176.75 229.25 211 483.14999389648 731.28695678711 109696.27069092 58024208.608261
4057	1736645 7303 12969 19286 170.75 230.75 241 0.973 11.200708441096 592.92698537363 2683.4905839288
4056	1743948 6764 12969 19286 170.75 230.75 241 -8.817081451416 4 36.134572982788 468.15466113347
4055	1750712 7118 12946 19286 170.5 230.75 242 0 15.02499961853 2206.2214071751 30290.894602263
4054	1757830 8229 12923 19286 170.25 230.75 243 184.17810058594 732.29327392578 110940.50878906 54907969.166148
4053	1766059 8264 12923 19286 170.25 230.75 243 486.85000610352 486.85000610352 118304.55148315 57596571.611647
vector 4235  IntersectionExampleScenario.node[79].veinsmobility  posx  ETV
vector 4236  IntersectionExampleScenario.node[79].veinsmobility  posy  ETV
vector 4237  IntersectionExampleScenario.node[79].veinsmobility  speed  ETV
vector 4242  IntersectionExampleScenario.node[80].veinsmobility  posx  ETV
vector 4243  IntersectionExampleScenario.node[80].veinsmobility  posy  ETV
vector 4249  IntersectionExampleScenario.node[81].veinsmobility  posx  ETV
vector 4250  IntersectionExampleScenario.node[81].veinsmobility  posy  ETV
vector 4238  IntersectionExampleScenario.node[79].veinsmobility  acceleration  ETV
vector 4239  IntersectionExampleScenario.node[79].veinsmobility  co2emission  ETV
vector 4244  IntersectionExampleScenario.node[80].veinsmobility  speed  ETV
vector 4251  IntersectionExampleScenario.node[81].veinsmobility  speed  ETV
vector 4245  IntersectionExampleScenario.node[80].veinsmobility  acceleration  ETV
vector 4246  IntersectionExampleScenario.node[80].veinsmobility  co2emission  ETV
vector 4252  IntersectionExampleScenario.node[81].veinsmobility  acceleration  ETV
vector 4253  IntersectionExampleScenario.node[81].veinsmobility  co2emission  ETV
4064	1775511 7531 13318 19517 174.5 232.5 233 0.973 11.200708441096 606.98732926331 2763.3074287183
4063	1783042 7590 13318 19517 174.5 232.5 233 -4.5 2.5 38.511121749878 412.6649216357
4062	1790632 7810 13293 19517 174.25 232.5 234 0 15.311120986938 2252.8129593404 31509.045114474
4061	1798442 7957 13268 19517 174 232.5 235 176.21716308594 734.83978271484 106088.81555176 52262445.045839
4060	1806399 7989 13268 19517 174 232.5 235 486.85000610352 486.85000610352 114409.75143433 55700388.184103
4078	1814388 6992 13738 19517 178.75 232.5 216 0.973 11.648172402475 591.96826302418 2937.2349587877
4077	1821380 6901 13738 19517 178.75 232.5 216 -4.5 2.5 38.511121749878 430.04262529514
4076	1828281 7161 13711 19517 178.5 232.5 217 0 15.64999961853 2281.4420616673 31919.526354031
4075	1835442 7399 13684 19517 178.25 232.5 218 482.93930053711 806.11563110352 122496.9851532 71141166.251434
4074	1842841 7409 13684 19517 178.25 232.5 218 483.14999389648 732.08731079102 113644.20428467 60304749.061731
vector 4256  IntersectionExampleScenario.node[82].veinsmobility  posx  ETV
vector 4257  IntersectionExampleScenario.node[82].veinsmobility  posy  ETV
vector 4258  IntersectionExampleScenario.node[82].veinsmobility  speed  ETV
vector 4259  IntersectionExampleScenario.node[82].veinsmobility  acceleration  ETV
vector 4260  IntersectionExampleScenario.node[82].veinsmobility  co2emission  ETV
vector 4263  IntersectionExampleScenario.node[83].veinsmobility  posx  ETV
vector 4264  IntersectionExampleScenario.node[83].veinsmobility  posy  ETV
4113	1850798 5233 15252 19774 193.75 234.25 163 0.973 12.099024792222 529.73128502396 3036.1122885054
4112	1856031 5024 15252 19774 193.75 234.25 163 -3.1211853027344 2.5 40.038900375366 265.30514717048
4111	1861055 5378 15229 19774 193.5 234.25 164 5.6500000953674 16.27499961853 2221.8501930237 31346.58609315
4110	1866433 5577 15205 19774 193.25 234.25 165 184.17810058594 734.78244018555 73777.744903564 37090886.525698
4109	1872010 5611 15205 19774 193.25 234.25 165 486.85000610352 486.85000610352 80330.25100708 39108783.193094
vector 4265  IntersectionExampleScenario.node[83].veinsmobility  speed  ETV
vector 4266  IntersectionExampleScenario.node[83].veinsmobility  acceleration  ETV
vector 4267  IntersectionExampleScenario.node[83].veinsmobility  co2emission  ETV
4099	1877865 6266 14365 19852 184.5 234.75 202 0.973 11.648172402475 575.04207054215 2961.2268999791
4098	1884131 6461 14365 19852 184.5 234.75 202 -3.9593544006348 2.5000004768372 39.529638290405 381.54096356782
4097	1890592 6618 14338 19852 184.25 234.75 203 0 15.64999961853 2203.2275972366 29464.734984507
4096	1897210 6921 14311 19852 184 234.75 204 483.14999389648 785.82187652588 114507.35480499 66127951.040124
4095	1904131 6919 14311 19852 184 234.75 204 483.14999389648 732.11508178711 106754.08578491 56893522.455746
vector 4270  IntersectionExampleScenario.node[84].veinsmobility  posx  ETV
vector 4271  IntersectionExampleScenario.node[84].veinsmobility  posy  ETV
vector 4272  IntersectionExampleScenario.node[84].veinsmobility  speed  ETV
vector 4273  IntersectionExampleScenario.node[84].veinsmobility  acceleration  ETV
vector 4274  IntersectionExampleScenario.node[84].veinsmobility  co2emission  ETV
vector 4277  IntersectionExampleScenario.node[85].veinsmobility  posx  ETV
vector 4278  IntersectionExampleScenario.node[85].veinsmobility  posy  ETV
vector 4279  IntersectionExampleScenario.node[85].veinsmobility  speed  ETV
vector 4280  IntersectionExampleScenario.node[85].veinsmobility  acceleration  ETV
vector 4281  IntersectionExampleScenario.node[85].veinsmobility  co2emission  ETV
vector 4284  IntersectionExampleScenario.node[86].veinsmobility  posx  ETV
vector 4285  IntersectionExampleScenario.node[86].veinsmobility  posy  ETV
vector 4291  IntersectionExampleScenario.node[87].veinsmobility  posx  ETV
vector 4292  IntersectionExampleScenario.node[87].veinsmobility  posy  ETV
vector 4286  IntersectionExampleScenario.node[86].veinsmobility  speed  ETV
4141	1912223 5056 15968 20704 201.5 240 155 0.973 12.099024792222 533.11454727049 3244.2245939576
4140	1917279 4788 15968 20704 201.5 240 155 -4.2061462402344 2.5 41.396924972534 317.1602484558
4139	1922067 4978 15939 20704 201.25 240 156 5.6500000953674 16.310695648193 2191.8300886154 32401.047074754
4138	1927045 5296 15910 20704 201 240 157 184.17810058594 483.18566894531 62413.28237915 26519555.037295
4137	1932341 5325 15910 20704 201 240 157 486.85000610352 735.2064666748 84388.447097778 46266557.852733
vector 4298  IntersectionExampleScenario.node[88].veinsmobility  posx  ETV
vector 4299  IntersectionExampleScenario.node[88].veinsmobility  posy  ETV
vector 4287  IntersectionExampleScenario.node[86].veinsmobility  acceleration  ETV
vector 4288  IntersectionExampleScenario.node[86].veinsmobility  co2emission  ETV
vector 4293  IntersectionExampleScenario.node[87].veinsmobility  speed  ETV
vector 4294  IntersectionExampleScenario.node[87].veinsmobility  acceleration  ETV
vector 4295  IntersectionExampleScenario.node[87].veinsmobility  co2emission  ETV
vector 4300  IntersectionExampleScenario.node[88].veinsmobility  speed  ETV
vector 4301  IntersectionExampleScenario.node[88].veinsmobility  acceleration  ETV
vector 4302  IntersectionExampleScenario.node[88].veinsmobility  co2emission  ETV
vector 4305  IntersectionExampleScenario.node[89].veinsmobility  posx  ETV
vector 4306  IntersectionExampleScenario.node[89].veinsmobility  posy  ETV
vector 4307  IntersectionExampleScenario.node[89].veinsmobility  speed  ETV
vector 4308  IntersectionExampleScenario.node[89].veinsmobility  acceleration  ETV
vector 4309  IntersectionExampleScenario.node[89].veinsmobility  co2emission  ETV
4120	1938869 5566 15752 21157 199.5 242.5 173 0.973 12.099024792222 568.76660959165 3213.3788048404
4119	1944435 4934 15752 21157 199.5 242.5 173 -9.2126445770264 4 41.396924972534 521.82208356757
4118	1949369 5457 15729 21157 199.25 242.5 174 0 16.27499961853 2194.9299123287 32233.510500643
4117	1954826 5945 15706 21157 199 242.5 175 239.17236328125 486.85000610352 77317.181274414 35103388.08631
4116	1960771 5942 15706 21157 199 242.5 175 483.14999389648 785.82187652588 98648.59563446 57437270.264988
vector 4312  IntersectionExampleScenario.node[90].veinsmobility  posx  ETV
vector 4313  IntersectionExampleScenario.node[90].veinsmobility  posy  ETV
vector 4314  IntersectionExampleScenario.node[90].veinsmobility  speed  ETV
vector 4315  IntersectionExampleScenario.node[90].veinsmobility  acceleration  ETV
vector 4316  IntersectionExampleScenario.node[90].veinsmobility  co2emission  ETV
vector 4319  IntersectionExampleScenario.node[91].veinsmobility  posx  ETV
vector 4320  IntersectionExampleScenario.node[91].veinsmobility  posy  ETV
vector 4321  IntersectionExampleScenario.node[91].veinsmobility  speed  ETV
4134	1967338 5947 15856 21735 200.5 245.75 182 0.973 11.450879080643 544.36998064049 2746.5442567028
4133	1973285 5592 15856 21735 200.5 245.75 182 -4.5 2.5 37.32285118103 367.00073321764
4132	1978877 6025 15829 21735 200.25 245.75 183 2.2761704921722 15.375 2291.1603326797 31510.923627134
4131	1984902 6248 15802 21735 200 245.75 184 237.50671386719 486.85000610352 81083.02053833 36750417.239157
4130	1991150 6242 15802 21735 200 245.75 184 482.87338256836 807.99687957764 105663.05602264 62899251.977121
vector 4322  IntersectionExampleScenario.node[91].veinsmobility  acceleration  ETV
vector 4323  IntersectionExampleScenario.node[91].veinsmobility  co2emission  ETV
vector 4326  IntersectionExampleScenario.node[92].veinsmobility  posx  ETV
vector 4327  IntersectionExampleScenario.node[92].veinsmobility  posy  ETV
vector 4328  IntersectionExampleScenario.node[92].veinsmobility  speed  ETV
vector 4329  IntersectionExampleScenario.node[92].veinsmobility  acceleration  ETV
vector 4330  IntersectionExampleScenario.node[92].veinsmobility  co2emission  ETV
vector 4333  IntersectionExampleScenario.node[93].veinsmobility  posx  ETV
vector 4334  IntersectionExampleScenario.node[93].veinsmobility  posy  ETV
vector 4335  IntersectionExampleScenario.node[93].veinsmobility  speed  ETV
vector 4336  IntersectionExampleScenario.node[93].veinsmobility  acceleration  ETV
vector 4337  IntersectionExampleScenario.node[93].veinsmobility  co2emission  ETV
vector 4340  IntersectionExampleScenario.node[94].veinsmobility  posx  ETV
vector 4341  IntersectionExampleScenario.node[94].veinsmobility  posy  ETV
vector 4342  IntersectionExampleScenario.node[94].veinsmobility  speed  ETV
vector 4347  IntersectionExampleScenario.node[95].veinsmobility  posx  ETV
vector 4348  IntersectionExampleScenario.node[95].veinsmobility  posy  ETV
vector 4343  IntersectionExampleScenario.node[94].veinsmobility  acceleration  ETV
vector 4344  IntersectionExampleScenario.node[94].veinsmobility  co2emission  ETV
vector 4349  IntersectionExampleScenario.node[95].veinsmobility  speed  ETV
vector 4350  IntersectionExampleScenario.node[95].veinsmobility  acceleration  ETV
vector 4351  IntersectionExampleScenario.node[95].veinsmobility  co2emission  ETV
vector 4354  IntersectionExampleScenario.node[96].veinsmobility  posx  ETV
vector 4355  IntersectionExampleScenario.node[96].veinsmobility  posy  ETV
vector 4356  IntersectionExampleScenario.node[96].veinsmobility  speed  ETV
vector 4357  IntersectionExampleScenario.node[96].veinsmobility  acceleration  ETV
vector 4358  IntersectionExampleScenario.node[96].veinsmobility  co2emission  ETV
4127	1999539 6638 15802 23303 200 254 217 0.97223939240464 11.648172402475 593.85648386413 3020.0613517767
4126	2006177 6115 15802 23303 200 254 217 -6.8301362991333 4 38.680875778198 479.28679664388
4125	2012292 6406 15777 23303 199.75 254 218 0 15.64999961853 2189.4074516296 31058.801738424
4124	2018698 7434 15752 23303 199.5 254 219 483.14999389648 734.76512145996 114275.04042053 60721743.562221
4123	2026132 7418 15752 23303 199.5 254 219 184.17810058594 486.85000610352 91565.0128479 40285553.46058
4148	2033550 6458 16338 23584 204.75 255.5 204 0.973 11.810082123732 576.69981640039 3030.9073219879
4147	2040008 6423 16338 23584 204.75 255.5 204 -4.2152519226074 2.5 39.869146347046 396.31090528944
4146	2046431 6528 16309 23584 204.5 255.5 205 0 15.875 2178.9345664885 30362.973044274
4145	2052959 6999 16280 23584 204.25 255.5 206 238.27642822266 483.14999389648 91614.26473999 41725382.043573
4144	2059958 6985 16280 23584 204.25 255.5 206 184.17810058594 483.27438354492 84848.144836426 36822323.775681
4162	2066943 6093 16796 23927 208.75 257.5 196 0.973 11.810082123732 590.74040886391 3150.5891209563
4161	2073036 6109 16796 23927 208.75 257.5 196 -4.1557846069336 2.5 42.245687484741 368.63440614865
4160	2079145 6368 16767 23927 208.5 257.5 197 1.6164306402206 16.227851867676 2214.4351594448 30315.448978963
4159	2085513 6722 16738 23927 208.25 257.5 198 235.67077636719 483.14999389648 87852.651367188 39952519.22968
4158	2092235 6696 16738 23927 208.25 257.5 198 177.97814941406 483.14999389648 80083.655975342 34268881.577087
4183	2098931 5207 17729 24044 216.5 258.25 168 0.973 12.44402232946 533.76857470821 3218.5024246802
4182	2104138 5303 17729 24044 216.5 258.25 168 -2.871021270752 2.5 42.415441513062 278.97906684664
4181	2109441 5495 17701 24044 216.25 258.25 169 5.6500000953674 16.75 2216.220946312 31213.436187328
4180	2114936 5779 17672 24044 216 258.25 170 483.14999389648 483.14999389648 82135.498962402 39683765.822369
4179	2120715 5745 17672 24044 216 258.25 170 184.17810058594 732.72482299805 75513.789672852 37519010.191672
vector 4361  IntersectionExampleScenario.node[97].veinsmobility  posx  ETV
vector 4362  IntersectionExampleScenario.node[97].veinsmobility  posy  ETV
vector 4363  IntersectionExampleScenario.node[97].veinsmobility  speed  ETV
vector 4364  IntersectionExampleScenario.node[97].veinsmobility  acceleration  ETV
vector 4365  IntersectionExampleScenario.node[97].veinsmobility  co2emission  ETV
4204	2126856 5151 18299 24585 222.25 261.75 159 0.97223939240464 11.648172402475 486.43155188242 2663.6098786718
4203	2132007 5014 18299 24585 222.25 261.75 159 -2.8602638244629 2.5 38.680875778198 203.0684993128
4202	2137021 5205 18272 24585 222 261.75 160 5.6500000953674 15.64999961853 2223.2847299576 31563.621196976
4201	2142226 5475 18245 24585 221.75 261.75 161 483.14999389648 483.14999389648 77787.149017334 37582860.57295
4200	2147701 5443 18245 24585 221.75 261.75 161 184.17810058594 734.85887145996 72130.751678467 36486482.02561
4155	2153144 7225 16565 25195 206.75 266 238 0.973 11.200708441096 587.00623489328 2697.0852433184
4154	2160369 6819 16565 25195 206.75 266 238 -9.1152935028076 4 35.625318527222 480.33710454301
4153	2167188 6920 16536 25195 206.5 266 239 0 15.02499961853 2204.4367079735 30019.643807593
4152	2174108 8149 16507 25195 206.25 266 240 483.14999389648 785.82187652588 131670.66345978 74328771.264835
4151	2182257 8157 16507 25195 206.25 266 240 483.14999389648 734.37588500977 124817.2250824 66071663.544654
vector 4368  IntersectionExampleScenario.node[98].veinsmobility  posx  ETV
vector 4369  IntersectionExampleScenario.node[98].veinsmobility  posy  ETV
vector 4370  IntersectionExampleScenario.node[98].veinsmobility  speed  ETV
vector 4371  IntersectionExampleScenario.node[98].veinsmobility  acceleration  ETV
vector 4372  IntersectionExampleScenario.node[98].veinsmobility  co2emission  ETV
4176	2190810 6913 17168 25501 211.75 268.25 227 0.973 12.353032912318 640.52849854606 3273.0248396761
4175	2197723 6415 17168 25501 211.75 268.25 227 -9.1157684326172 3.0238189697266 42.754949569702 590.5556753618
4174	2204138 6581 17135 25501 211.5 268.25 228 -0.75595474243164 16.625 2283.6950502396 33866.628866521
4173	2210719 7723 17102 25501 211.25 268.25 229 166.078125 487.1266784668 94774.012908936 41527263.731994
4172	2218442 7782 17102 25501 211.25 268.25 229 235.75439453125 486.85000610352 103547.04000854 47871061.053215
4169	2226224 7196 16916 25567 209.75 268.75 237 0.973 11.200708441096 583.63136867116 2676.3370340658
4168	2233420 6524 16916 25567 209.75 268.75 237 -7.2451009750366 4 35.455564498901 467.03466552266
4167	2239944 6913 16885 25567 209.5 268.75 238 0 15.02499961853 2179.3908524513 29425.714031275
4166	2246857 8094 16854 25567 209.25 268.75 239 184.17810058594 483.24322509766 100368.00582886 44204690.466425
4165	2254951 8119 16854 25567 209.25 268.75 239 486.85000610352 733.26133728027 124931.81402588 66403951.717433
4190	2263070 6608 17884 25822 218 270.75 212 0.973 11.200708441096 554.10257339228 2534.4572053008
4189	2269678 6964 17884 25822 218 270.75 212 -4.5 2.5 35.625318527222 310.93427810496
4188	2276642 7217 17857 25822 217.75 270.75 213 1.0312628746033 15.02499961853 2202.5796966553 27872.437093099
4187	2283859 7256 17830 25822 217.5 270.75 214 483.14999389648 785.82187652588 119512.29181671 68697803.713687
4186	2291115 7265 17830 25822 217.5 270.75 214 483.14999389648 733.52516174316 112245.05233765 59978628.825809
4232	2298380 5574 19018 25946 228.5 271.75 174 0.973 11.450879080643 516.4005367821 2716.1677981094
4231	2303954 5444 19018 25946 228.5 271.75 174 -2.1476974487305 2.5 37.15309715271 258.37903700851
4230	2309398 5666 18987 25946 228.25 271.75 175 5.6500000953674 15.375 2202.3455529213 29354.905185887
4229	2315064 5961 18956 25946 228 271.75 176 184.17810058594 486.88092041016 70517.195617676 30064038.934705
4228	2321025 5970 18956 25946 228 271.75 176 238.28662109375 486.85000610352 77221.467590332 34877285.255865
4197	2326995 6433 18245 25977 221.75 272 202 0.973 11.200708441096 579.21518126901 2825.2501803101
4196	2333428 6895 18245 25977 221.75 272 202 -4.5 2.5 39.512399673462 344.58012787261
4195	2340323 6876 18220 25977 221.5 272 203 3.8599574565887 15.580350875854 2231.5170016289 29263.155930871
4194	2347199 6919 18195 25977 221.25 272 204 483.14999389648 793.78281402588 115428.47523499 67287637.812333
4193	2354118 6922 18195 25977 221.25 272 204 483.14999389648 732.26910400391 106800.87832642 56945048.700056
[...]
vector 7039  IntersectionExampleScenario.node[479].veinsmobility  co2emission  ETV
vector 7042  IntersectionExampleScenario.node[480].veinsmobility  posx  ETV
vector 7043  IntersectionExampleScenario.node[480].veinsmobility  posy  ETV
6934	15270874 6379 130802 134125 1701.5 1748.5 189 0.973 11.450879080643 548.91008734256 2782.7289436243
6933	15277253 5955 130802 134125 1701.5 1748.5 189 -6.7711477279663 4 36.98334312439 452.58212473492
6932	15283208 6284 130789 134125 1701.25 1748.5 190 0 15.375 2197.6686828136 30446.01081592
6931	15289492 6873 130776 134125 1701 1748.5 191 237.87945556641 486.85000610352 84476.462249756 38396611.584018
6930	15296365 6867 130776 134125 1701 1748.5 191 483.14999389648 785.82187652588 107117.31360626 61998241.983886
vector 7044  IntersectionExampleScenario.node[480].veinsmobility  speed  ETV
vector 7049  IntersectionExampleScenario.node[481].veinsmobility  posx  ETV
vector 7050  IntersectionExampleScenario.node[481].veinsmobility  posy  ETV
vector 7045  IntersectionExampleScenario.node[480].veinsmobility  acceleration  ETV
vector 7046  IntersectionExampleScenario.node[480].veinsmobility  co2emission  ETV
vector 7051  IntersectionExampleScenario.node[481].veinsmobility  speed  ETV
vector 7052  IntersectionExampleScenario.node[481].veinsmobility  acceleration  ETV
vector 7053  IntersectionExampleScenario.node[481].veinsmobility  co2emission  ETV
6955	15303880 5477 131407 134590 1713.5 1752.5 157 0.973 11.50573219951 486.61187879132 2634.0621680562
6954	15309357 5153 131407 134590 1713.5 1752.5 157 -2.9671936035156 2.5 36.98334312439 213.19000146195
6953	15314510 5467 131394 134590 1713.25 1752.5 158 5.6500000953674 15.451548576355 2210.3552560806 31485.250613202
6952	15319977 5723 131381 134590 1713 1752.5 159 486.85000610352 486.85000610352 77409.150970459 37686645.622436
6951	15325700 5717 131381 134590 1713 1752.5 159 238.36334228516 785.82187652588 83003.041053772 47506912.54505
vector 7056  IntersectionExampleScenario.node[482].veinsmobility  posx  ETV
vector 7057  IntersectionExampleScenario.node[482].veinsmobility  posy  ETV
vector 7058  IntersectionExampleScenario.node[482].veinsmobility  speed  ETV
vector 7059  IntersectionExampleScenario.node[482].veinsmobility  acceleration  ETV
vector 7060  IntersectionExampleScenario.node[482].veinsmobility  co2emission  ETV
vector 7063  IntersectionExampleScenario.node[483].veinsmobility  posx  ETV
vector 7064  IntersectionExampleScenario.node[483].veinsmobility  posy  ETV
vector 7065  IntersectionExampleScenario.node[483].veinsmobility  speed  ETV
vector 7066  IntersectionExampleScenario.node[483].veinsmobility  acceleration  ETV
vector 7067  IntersectionExampleScenario.node[483].veinsmobility  co2emission  ETV
vector 7070  IntersectionExampleScenario.node[484].veinsmobility  posx  ETV
vector 7071  IntersectionExampleScenario.node[484].veinsmobility  posy  ETV
vector 7072  IntersectionExampleScenario.node[484].veinsmobility  speed  ETV
vector 7073  IntersectionExampleScenario.node[484].veinsmobility  acceleration  ETV
vector 7074  IntersectionExampleScenario.node[484].veinsmobility  co2emission  ETV
vector 7077  IntersectionExampleScenario.node[485].veinsmobility  posx  ETV
vector 7078  IntersectionExampleScenario.node[485].veinsmobility  posy  ETV
vector 7079  IntersectionExampleScenario.node[485].veinsmobility  speed  ETV
vector 7080  IntersectionExampleScenario.node[485].veinsmobility  acceleration  ETV
vector 7081  IntersectionExampleScenario.node[485].veinsmobility  co2emission  ETV
6983	15333021 5676 132106 135884 1725.75 1766 162 0.973 11.36141391502 497.59860970425 2603.3112020495
6982	15338697 5190 132106 135884 1725.75 1766 162 -3.4656524658203 2.5 36.98334312439 274.192838124
6981	15343887 5550 132089 135884 1725.5 1766 163 5.6500000953674 15.25 2183.7127151489 30486.634393445
6980	15349437 5837 132072 135884 1725.25 1766 164 236.71746826172 483.14999389648 70865.358886719 31565680.27796
6979	15355274 5874 132072 135884 1725.25 1766 164 184.17810058594 483.15249633789 65209.492889404 27692069.257293
vector 7084  IntersectionExampleScenario.node[486].veinsmobility  posx  ETV
vector 7085  IntersectionExampleScenario.node[486].veinsmobility  posy  ETV
vector 7086  IntersectionExampleScenario.node[486].veinsmobility  speed  ETV
vector 7087  IntersectionExampleScenario.node[486].veinsmobility  acceleration  ETV
vector 7088  IntersectionExampleScenario.node[486].veinsmobility  co2emission  ETV
6948	15361549 7457 131370 136299 1712.75 1770.25 231 0.973 11.648172402475 601.69695261113 2966.3899002502
6947	15369006 6842 131370 136299 1712.75 1770.25 231 -7.7750473022461 4 38.511121749878 476.5267975717
6946	15375848 7166 131359 136299 1712.5 1770.25 232 0 15.64999961853 2201.8212580681 31157.430440079
6945	15383014 8377 131348 136299 1712.25 1770.25 233 483.14999389648 785.82187652588 127852.70685577 72197629.651841
6944	15391391 8380 131348 136299 1712.25 1770.25 233 483.14999389648 733.24354553223 120962.90377808 63894139.920583
6962	15399771 7072 131567 136299 1716.5 1770.25 216 0.973 11.648172402475 590.42548966816 2965.0253353495
6961	15406843 6379 131567 136299 1716.5 1770.25 216 -6.8118047714233 4 38.850629806519 469.91527261686
6960	15413222 6836 131552 136299 1716.25 1770.25 217 0 15.64999961853 2207.1537384987 31385.930450737
6959	15420058 7823 131537 136299 1716 1770.25 218 184.17810058594 486.85000610352 91125.200164795 40090426.36881
6958	15427881 7843 131537 136299 1716 1770.25 218 235.67944335938 486.85000610352 97716.340576172 44883641.336938
6990	15435724 5752 132348 136455 1729.25 1772 172 0.973 12.099024792222 553.06516656981 3168.7535338425
6989	15441476 5591 132348 136455 1729.25 1772 172 -3.6698608398438 2.5 41.057416915894 310.43321246456
6988	15447067 5992 132329 136455 1729 1772 173 4.2163743972778 16.27499961853 2211.2107615471 30682.305980682
6987	15453059 6245 132310 136455 1728.75 1772 174 238.5771484375 785.82187652588 91511.985374451 52128040.701678
6986	15459304 6263 132310 136455 1728.75 1772 174 483.14999389648 483.14999389648 84068.098937988 40617501.488778
6969	15465567 7122 131718 136497 1719 1772.5 215 0.973 11.200708441096 556.88516433601 2637.6412858152
6968	15472689 7470 131718 136497 1719 1772.5 215 -4.5 2.5000002384186 36.134572982788 344.78401544914
6967	15480159 7566 131703 136497 1718.75 1772.5 216 0 15.02499961853 2181.3648651019 28140.541862544
6966	15487725 7801 131687 136497 1718.5 1772.5 217 486.82110595703 785.82187652588 121237.71656036 69648804.463261
6965	15495526 7807 131687 136497 1718.5 1772.5 217 236.99829101562 483.14999389648 96380.063812256 43863157.113555
vector 7091  IntersectionExampleScenario.node[487].veinsmobility  posx  ETV
vector 7092  IntersectionExampleScenario.node[487].veinsmobility  posy  ETV
vector 7093  IntersectionExampleScenario.node[487].veinsmobility  speed  ETV
vector 7094  IntersectionExampleScenario.node[487].veinsmobility  acceleration  ETV
vector 7095  IntersectionExampleScenario.node[487].veinsmobility  co2emission  ETV
7025	15503734 5256 133032 136704 1737.5 1775 151 0.973 12.099024792222 491.02653780099 2841.7805984541
7024	15508990 5121 133032 136704 1737.5 1775 151 -3.5258522033691 2.5 40.038900375366 224.90762768576
7023	15514111 5230 133009 136704 1737.25 1775 152 5.6500000953674 16.27499961853 2223.289399147 33252.516694921
7022	15519341 5475 132986 136704 1737 1775 153 184.17810058594 734.70240783691 68653.198913574 34891717.387347
7021	15524816 5506 132986 136704 1737 1775 153 486.85000610352 486.85000610352 74488.050933838 36264508.051778
7018	15530322 5684 132692 136725 1733.75 1775.25 167 0.973 11.54047740176 487.07283560173 2535.9656416005
7017	15536006 5684 132692 136725 1733.75 1775.25 167 -4.1874809265137 2.5 36.98334312439 216.68246405243
7016	15541690 5803 132669 136725 1733.5 1775.25 168 5.6500000953674 15.5 2216.4621553421 30221.01699024
7015	15547493 6068 132646 136725 1733.25 1775.25 169 237.00762939453 785.82187652588 88307.093589783 50355259.505251
7014	15553561 6085 132646 136725 1733.25 1775.25 169 483.14999389648 483.14999389648 81652.348968506 39450331.905767
vector 7098  IntersectionExampleScenario.node[488].veinsmobility  posx  ETV
vector 7099  IntersectionExampleScenario.node[488].veinsmobility  posy  ETV
vector 7100  IntersectionExampleScenario.node[488].veinsmobility  speed  ETV
vector 7101  IntersectionExampleScenario.node[488].veinsmobility  acceleration  ETV
vector 7102  IntersectionExampleScenario.node[488].veinsmobility  co2emission  ETV
vector 7105  IntersectionExampleScenario.node[489].veinsmobility  posx  ETV
vector 7106  IntersectionExampleScenario.node[489].veinsmobility  posy  ETV
vector 7107  IntersectionExampleScenario.node[489].veinsmobility  speed  ETV
vector 7108  IntersectionExampleScenario.node[489].veinsmobility  acceleration  ETV
vector 7109  IntersectionExampleScenario.node[489].veinsmobility  co2emission  ETV
6976	15560448 7507 132042 137363 1724.75 1783 234 0.973 11.90022389248 613.56965338356 3106.809831325
6975	15567955 6963 132042 137363 1724.75 1783 234 -8.013355255127 4 39.529638290405 491.35818162182
6974	15574918 7185 132027 137363 1724.5 1783 235 0 16 2201.7318792343 31602.528258395
6973	15582103 8489 132012 137363 1724.25 1783 236 236.87365722656 486.85000610352 106650.53997803 49281503.067677
6972	15590592 8487 132012 137363 1724.25 1783 236 483.14999389648 785.82187652588 129249.65210724 72826901.017558
6997	15599079 6988 132542 137496 1732 1784.75 212 0.973 11.90022389248 590.15402526365 3072.0402162413
6996	15606067 7285 132542 137496 1732 1784.75 212 -3.7232477664948 2.5 41.566686630249 337.97262728847
6995	15613352 7422 132521 137496 1731.75 1784.75 213 0 16.09020614624 2212.2830018047 30688.470448054
6994	15620774 7703 132502 137496 1731.5 1784.75 214 235.47607421875 486.85000610352 96084.063476562 44188220.358523
6993	15628477 7695 132502 137496 1731.5 1784.75 214 482.91619873047 785.82187652588 119011.51300812 68079874.745099
7004	15636172 7411 132563 137692 1732.25 1787.5 222 0.973 11.482687203686 595.53057894122 2856.5643675874
7003	15643583 7698 132563 137692 1732.25 1787.5 222 -4.5 2.5 38.511121749878 376.37994327668
7002	15651281 7807 132542 137692 1732 1787.5 223 1.3480143547058 15.419397354126 2306.4601042271 30013.521059586
7001	15659088 8054 132521 137692 1731.75 1787.5 224 236.76861572266 486.85000610352 100659.65374756 46317202.137276
7000	15667142 8048 132521 137692 1731.75 1787.5 224 483.14999389648 810.23281097412 127574.29724121 75009432.256018
7053	15675190 5497 134242 137827 1749.5 1789.5 161 0.973 12.099024792222 547.80220023789 3264.5267656062
7052	15680687 5187 134242 137827 1749.5 1789.5 161 -2.9861831665039 2.5 41.566686630249 285.92899503463
7051	15685874 5534 134213 137827 1749.25 1789.5 162 5.6500000953674 16.27499961853 2211.7162303925 31459.275792482
7050	15691408 5852 134183 137827 1749 1789.5 163 235.99328613281 486.85000610352 71278.69732666 32115779.764513
7049	15697260 5858 134183 137827 1749 1789.5 163 483.14999389648 785.82187652588 93155.057472229 54981915.060085
vector 7112  IntersectionExampleScenario.node[490].veinsmobility  posx  ETV
vector 7113  IntersectionExampleScenario.node[490].veinsmobility  posy  ETV
vector 7114  IntersectionExampleScenario.node[490].veinsmobility  speed  ETV
vector 7115  IntersectionExampleScenario.node[490].veinsmobility  acceleration  ETV
vector 7116  IntersectionExampleScenario.node[490].veinsmobility  co2emission  ETV
7011	15703519 7902 132625 138089 1733 1794.5 247 0.973 11.450879080643 606.14073413523 2858.9218838682
7010	15711421 7223 132625 138089 1733 1794.5 247 -8.2128305435181 4 36.813589096069 486.59835472119
7009	15718644 7570 132604 138089 1732.75 1794.5 248 0 15.375 2205.7468717098 30668.92490501
7008	15726214 8964 132583 138089 1732.5 1794.5 249 483.14999389648 483.14999389648 120304.34848022 58125045.233941
7007	15735178 8919 132583 138089 1732.5 1794.5 249 184.17810058594 732.10963439941 113736.75247192 56174862.887819
7032	15744097 7460 133243 138154 1739.75 1795.75 225 0.973 11.810082123732 585.31943979482 2917.8783783655
7031	15751557 7811 133243 138154 1739.75 1795.75 225 -3.98708152771 2.5000004768372 38.511121749878 347.94885377684
7030	15759368 7824 133218 138154 1739.5 1795.75 226 0 15.875 2187.881099781 29297.692219867
7029	15767192 8159 133193 138154 1739.25 1795.75 227 235.88146972656 483.14999389648 101458.37722778 46401135.571754
7028	15775351 8137 133193 138154 1739.25 1795.75 227 184.17810058594 483.14999389648 94178.35836792 40995084.391884
7046	15783488 6535 134183 138281 1749 1798.25 198 0.973 11.810082123732 560.35945220766 2994.1957605755
7045	15790023 6673 134183 138281 1749 1798.25 198 -4.4842834472656 2.5 39.359884262085 337.70537676162
7044	15796696 6828 134154 138281 1748.75 1798.25 199 1.8819065093994 15.875 2187.0813908577 28713.121159034
7043	15803524 7184 134125 138281 1748.5 1798.25 200 236.25421142578 483.14999389648 88530.228790283 40187945.410959
7042	15810708 7167 134125 138281 1748.5 1798.25 200 184.17810058594 483.14999389648 81172.038879395 34751388.982383
vector 7119  IntersectionExampleScenario.node[491].veinsmobility  posx  ETV
vector 7120  IntersectionExampleScenario.node[491].veinsmobility  posy  ETV
vector 7121  IntersectionExampleScenario.node[491].veinsmobility  speed  ETV
vector 7122  IntersectionExampleScenario.node[491].veinsmobility  acceleration  ETV
vector 7123  IntersectionExampleScenario.node[491].veinsmobility  co2emission  ETV
vector 7126  IntersectionExampleScenario.node[492].veinsmobility  posx  ETV
vector 7127  IntersectionExampleScenario.node[492].veinsmobility  posy  ETV
vector 7128  IntersectionExampleScenario.node[492].veinsmobility  speed  ETV
7039	15818508 6661 134098 138373 1748.25 1800 208 0.97223939240464 11.648172402475 555.52418213654 2870.7266670055
7038	15825169 6274 134098 138373 1748.25 1800 208 -7.1630640029907 4 38.680879592896 471.7125829925
7037	15831443 6365 134071 138373 1748 1800 209 0 15.64999961853 1882.7610580921 26342.654089159
7036	15837808 7549 134044 138373 1747.75 1800 210 483.14999389648 785.82187652588 116688.75733185 66774730.676133
7035	15845357 7555 134044 138373 1747.75 1800 210 483.14999389648 653.35092163086 105405.49464417 53277140.922888
7060	15852912 5557 134824 138373 1754.5 1800 183 0.973 11.200708441096 369.10915875755 1494.1854240693
7059	15858469 5222 134824 138373 1754.5 1800 183 -18.472995758057 4 -1.1000003814697 655.06441339993
7058	15863691 5259 134795 138373 1754.25 1800 184 0 15.02499961853 1174.2987632751 16088.594332991
7057	15868950 6657 134764 138373 1754 1800 185 486.85000610352 488.3235168457 90070.647735596 43852552.541934
7056	15875607 6643 134764 138373 1754 1800 185 493.81311035156 785.82187652588 105222.24720001 61589274.014331
7067	15882250 4941 135462 138373 1761.5 1800 155 0.973 11.200708441096 322.33493649463 1388.3708428071
7066	15887191 5550 135462 138373 1761.5 1800 155 -3.7124831676483 2.5 -5.1000003814697 227.71272849686
7065	15892741 5497 135441 138373 1761.25 1800 156 0 15.02499961853 1138.7789218985 13908.091323917
7064	15898238 5650 135420 138373 1761 1800 157 486.85000610352 486.85000610352 76435.450958252 37212599.76555
7063	15903888 5624 135420 138373 1761 1800 157 502.314453125 785.82187652588 92340.111854553 55730543.985302
7074	15909512 5223 135592 138373 1763 1800 149 0.973 11.260115157894 456.82270533757 2412.2511300373
7073	15914735 5041 135592 138373 1763 1800 149 -3.0190811157227 2.5 36.813589096069 191.21473847269
7072	15919776 5180 135569 138373 1762.75 1800 150 5.6500000953674 15.108242988586 2090.3376493454 29674.591084476
7071	15924956 5435 135546 138373 1762.5 1800 151 483.14999389648 483.14999389648 72955.649078369 35248521.406928
7070	15930391 5408 135546 138373 1762.5 1800 151 184.17810058594 701.67538452148 65487.44342041 31964192.461194
7081	15935799 4904 135734 138373 1764.5 1800 143 0.973 11.36141391502 472.13559785237 2638.790189415
7080	15940703 4466 135734 138373 1764.5 1800 143 -28.354188919067 4 37.156053543091 1175.1223014108
7079	15945169 4764 135709 138373 1764.25 1800 144 0 15.25 1682.0116815567 22754.84652332
7078	15949933 5195 135684 138373 1764 1800 145 184.17810058594 483.24322509766 55849.269805908 23082079.034641
7077	15955128 5216 135684 138373 1764 1800 145 486.85000610352 608.65042114258 72729.533660889 36618575.617358
7088	15960344 4336 136083 138373 1768 1800 129 0.96997852711604 12.44402232946 497.93295007876 3477.1697195841
7087	15964680 4184 136083 138373 1768 1800 129 -3.4120140075684 2.5 42.587621688843 323.55114259781
7086	15968864 4420 136058 138373 1767.75 1800 130 5.6500000953674 16.75 1775.0490522385 25361.948608235
7085	15973284 4703 136033 138373 1767.5 1800 131 347.51409912109 785.82187652588 75124.487281799 45209585.205208
7084	15977987 4715 136033 138373 1767.5 1800 131 483.14999389648 483.14999389648 63292.649200439 30579843.074885
7095	15982702 3486 136683 138373 1774.75 1800 102 0.973 11.658843208333 352.34075799744 2159.8471757899
7094	15986188 3374 136683 138373 1774.75 1800 102 -3.6632137298584 2.5 25.89999961853 271.86518516276
7093	15989562 3436 136662 138373 1774.5 1800 103 5.6500000953674 15.664847373962 1311.7192807198 17848.051621257
7092	15992998 3719 136641 138373 1774.25 1800 104 184.17810058594 483.29995727539 36440.511932373 13858743.524141
7091	15996717 3744 136641 138373 1774.25 1800 104 486.85000610352 516.09945678711 50844.434783936 24860803.017258
7102	16000461 3239 136813 138373 1776.25 1800 96 0.973 11.200708441096 269.23970024344 1339.0807799945
7101	16003700 3053 136813 138373 1776.25 1800 96 -26.813285827637 2.5 -22.60000038147 914.63221127529
7100	16006753 3395 136790 138373 1776 1800 97 0 15.02499961853 1228.8875732422 17148.840370153
7099	16010148 3499 136767 138373 1775.75 1800 98 163.88433837891 471.60000610352 31460.81539917 11087965.059354
7098	16013647 3527 136767 138373 1775.75 1800 98 486.85000610352 486.85000610352 47711.300598145 23228246.987413
7109	16017174 2501 137344 138373 1782.75 1800 70 0.973 11.200708441096 233.3081996784 1279.1128810432
7108	16019675 2321 137344 138373 1782.75 1800 70 -0.38379669189453 2.5 35.964826583862 94.086673481597
7107	16021996 2543 137325 138373 1782.5 1800 71 5.6500000953674 15.02499961853 971.8176612854 13666.608381616
7106	16024539 2592 137306 138373 1782.25 1800 72 483.14999389648 483.14999389648 34786.799560547 16807241.995356
7105	16027131 2564 137306 138373 1782.25 1800 72 184.17810058594 422.24569702148 21165.352355957 6611789.489588
7116	16029695 851 138076 138373 1794.25 1800 24 0.973 11.648172402475 146.5194220772 1208.7104514272
7115	16030546 703 138076 138373 1794.25 1800 24 -0.41465759277344 2.5 38.507410049438 100.38906299296
7114	16031249 888 138063 138373 1794 1800 25 5.6500000953674 15.64999961853 304.05215549469 3978.8110200576
7113	16032137 935 138050 138373 1793.75 1800 26 483.14999389648 483.14999389648 12561.899841309 6069281.8316565
7112	16033072 911 138050 138373 1793.75 1800 26 184.17810058594 255.05871582031 5535.8893432617 1191716.4789235
7123	16033983 178 138318 138373 1799 1800 5 5.2162187258585 6.8826618500064 30.239051553249 184.61558649684
7122	16034161 130 138318 138373 1799 1800 5 2.4999980926514 2.5 12.499998092651 31.24999046326
7121	16034291 215 138305 138373 1798.75 1800 6 5.6500000953674 8.7749996185303 43.27499961853 318.95686711311
7120	16034506 251 138292 138373 1798.5 1800 7 483.14999389648 483.14999389648 3382.0499572754 1634037.4162152
7119	16034757 246 138292 138373 1798.5 1800 7 184.17810058594 192.41247558594 1312.3874511719 246111.98714531
7128	16035003 34 138373 138373 1800 1800 1 5.6500000953674 5.6500000953674 5.6500000953674 31.922501077652
7127	16035037 71 138357 138373 1799.75 1800 2 486.85000610352 486.85000610352 973.70001220703 474045.85688599
7126	16035108 71 138357 138373 1799.75 1800 2 785.82187652588 785.82187652588 1571.6437530518 1235032.0432533
3678	16035179 599 0 138372 0 1800 31 0 25 414 6162
3679	16035778 613 0 138372 0 1800 31 0 157 2551 275433
