file 15948765 1591479805                                        
version 2
run nodebug-31-20200606-17:40:48-10964
attr configname nodebug
attr datetime 20200606-17:40:48
attr experiment nodebug
attr inifile omnetpp.ini
attr iterationvars ""
attr iterationvars2 $repetition=31
attr measurement ""
attr network "\"org.car2x.veins.modules.application.ExtTraCIScenarioManagerLaunchd.IntersectionExampleScenario\""
attr processid 10964
attr repetition 31
attr replication #31
attr resultdir results
attr runnumber 31
attr seedset 31
param **.coreDebug false
param **.debug false
param *.**.nic.mac1609_4.bitrate 18Mbps
param *.**.nic.mac1609_4.txPower 20mW
param *.**.nic.mac1609_4.useServiceChannel false
param *.**.nic.phy80211p.analogueModels "xmldoc(\"config.xml\")"
param *.**.nic.phy80211p.decider "xmldoc(\"config.xml\")"
param *.**.nic.phy80211p.sensitivity -89dBm
param *.**.nic.phy80211p.thermalNoise -110dBm
param *.**.nic.phy80211p.usePropagationDelay true
param *.**.nic.phy80211p.useThermalNoise true
param *.annotations.draw false
param *.connectionManager.alpha 2.0
param *.connectionManager.carrierFrequency "5.890e9 Hz"
param *.connectionManager.pMax 20mW
param *.connectionManager.sat -89dBm
param *.connectionManager.sendDirect true
param *.manager.autoShutdown true
param *.manager.host "\"localhost\""
param *.manager.launchConfig "xmldoc(\"paramics.launchd.xml\")"
param *.manager.margin 25
param *.manager.moduleDisplayString "\"\""
param *.manager.moduleName "\"node\""
param *.manager.moduleType "\"org.car2x.veins.nodes.Car\""
param *.manager.port 9999
param *.manager.updateInterval 250ms
param *.node[*0].veinsmobility.accidentCount 0
param *.node[*0].veinsmobility.accidentDuration 30s
param *.node[*0].veinsmobility.accidentStart 75s
param *.node[*].appl.LiderSelectZoneRadio 55.0
param *.node[*].appl.ShareDataZoneRadio 110.0
param *.node[*].appl.TiempoSemaforo 30.0
param *.node[*].appl.beaconInterval 1s
param *.node[*].appl.beaconPriority 3
param *.node[*].appl.dataOnSch false
param *.node[*].appl.dataPriority 2
param *.node[*].appl.debug false
param *.node[*].appl.headerLength "256 bit"
param *.node[*].appl.maxOffset 0.005s
param *.node[*].appl.sendBeacons false
param *.node[*].appl.sendData true
param *.node[*].applType "\"Dummy\""
param *.node[*].mobilityType "\"TraCIMobility\""
param *.node[*].mobilityType.debug true
param *.node[*].veinsmobility.x 0
param *.node[*].veinsmobility.y 0
param *.node[*].veinsmobility.z 1.895
param *.node[*].veinsmobilityType "\"org.car2x.veins.modules.mobility.traci.TraCIMobility\""
param *.node[*].veinsmobilityType.debug true
param *.playgroundSizeX 8500m
param *.playgroundSizeY 8500m
param *.playgroundSizeZ 50m
param *.world.use2D false
param *.world.useTorus false

vector 39416  IntersectionExampleScenario.manager  vehiclesinsim  ETV
attr type  int
vector 39417  IntersectionExampleScenario.manager  realtime  ETV
attr type  int
attr unit  s
vector 39420  IntersectionExampleScenario.node[0].veinsmobility  posx  ETV
vector 39421  IntersectionExampleScenario.node[0].veinsmobility  posy  ETV
vector 39422  IntersectionExampleScenario.node[0].veinsmobility  speed  ETV
vector 39423  IntersectionExampleScenario.node[0].veinsmobility  acceleration  ETV
vector 39424  IntersectionExampleScenario.node[0].veinsmobility  co2emission  ETV
vector 39427  IntersectionExampleScenario.node[1].veinsmobility  posx  ETV
vector 39428  IntersectionExampleScenario.node[1].veinsmobility  posy  ETV
vector 39429  IntersectionExampleScenario.node[1].veinsmobility  speed  ETV
vector 39430  IntersectionExampleScenario.node[1].veinsmobility  acceleration  ETV
vector 39431  IntersectionExampleScenario.node[1].veinsmobility  co2emission  ETV
vector 39434  IntersectionExampleScenario.node[2].veinsmobility  posx  ETV
vector 39435  IntersectionExampleScenario.node[2].veinsmobility  posy  ETV
vector 39436  IntersectionExampleScenario.node[2].veinsmobility  speed  ETV
vector 39437  IntersectionExampleScenario.node[2].veinsmobility  acceleration  ETV
vector 39438  IntersectionExampleScenario.node[2].veinsmobility  co2emission  ETV
vector 39441  IntersectionExampleScenario.node[3].veinsmobility  posx  ETV
vector 39442  IntersectionExampleScenario.node[3].veinsmobility  posy  ETV
vector 39443  IntersectionExampleScenario.node[3].veinsmobility  speed  ETV
vector 39444  IntersectionExampleScenario.node[3].veinsmobility  acceleration  ETV
vector 39445  IntersectionExampleScenario.node[3].veinsmobility  co2emission  ETV
vector 39448  IntersectionExampleScenario.node[4].veinsmobility  posx  ETV
vector 39449  IntersectionExampleScenario.node[4].veinsmobility  posy  ETV
vector 39450  IntersectionExampleScenario.node[4].veinsmobility  speed  ETV
vector 39451  IntersectionExampleScenario.node[4].veinsmobility  acceleration  ETV
vector 39452  IntersectionExampleScenario.node[4].veinsmobility  co2emission  ETV
vector 39455  IntersectionExampleScenario.node[5].veinsmobility  posx  ETV
vector 39456  IntersectionExampleScenario.node[5].veinsmobility  posy  ETV
vector 39462  IntersectionExampleScenario.node[6].veinsmobility  posx  ETV
vector 39463  IntersectionExampleScenario.node[6].veinsmobility  posy  ETV
vector 39457  IntersectionExampleScenario.node[5].veinsmobility  speed  ETV
vector 39464  IntersectionExampleScenario.node[6].veinsmobility  speed  ETV
vector 39458  IntersectionExampleScenario.node[5].veinsmobility  acceleration  ETV
vector 39459  IntersectionExampleScenario.node[5].veinsmobility  co2emission  ETV
vector 39465  IntersectionExampleScenario.node[6].veinsmobility  acceleration  ETV
vector 39466  IntersectionExampleScenario.node[6].veinsmobility  co2emission  ETV
vector 39469  IntersectionExampleScenario.node[7].veinsmobility  posx  ETV
vector 39470  IntersectionExampleScenario.node[7].veinsmobility  posy  ETV
vector 39471  IntersectionExampleScenario.node[7].veinsmobility  speed  ETV
vector 39472  IntersectionExampleScenario.node[7].veinsmobility  acceleration  ETV
vector 39473  IntersectionExampleScenario.node[7].veinsmobility  co2emission  ETV
39424	6104 6078 15 1659 2.5 55 211 0.973 11.810082123732 583.76090450783 3041.1890255813
39423	12182 5658 15 1659 2.5 55 211 -6.8117866516113 4 38.850629806519 475.00774497838
39422	17840 5829 12 1659 2.25 55 212 0 15.875 2171.3403301239 30734.834029248
39421	23669 6817 9 1659 2 55 213 486.63604736328 785.82187652588 118103.46927643 67434757.170741
39420	30486 6750 9 1659 2 55 213 238.59930419922 483.14999389648 94907.437530518 43288481.938073
vector 39476  IntersectionExampleScenario.node[8].veinsmobility  posx  ETV
vector 39477  IntersectionExampleScenario.node[8].veinsmobility  posy  ETV
vector 39478  IntersectionExampleScenario.node[8].veinsmobility  speed  ETV
vector 39479  IntersectionExampleScenario.node[8].veinsmobility  acceleration  ETV
vector 39480  IntersectionExampleScenario.node[8].veinsmobility  co2emission  ETV
39431	37632 6567 31 1730 3.5 56.75 214 0.973 11.450879080643 584.90513934704 2837.4405895048
39430	44199 6081 31 1730 3.5 56.75 214 -4.5 2.5000002384186 37.492597579956 438.28228538895
39429	50280 6678 26 1730 3.25 56.75 215 0 15.375 2293.9991213903 31674.465223353
39428	56958 6918 21 1730 3 56.75 216 483.13275146484 807.99687957764 121793.05832672 71025574.364491
39427	63876 6935 21 1730 3 56.75 216 483.14999389648 732.75440979004 112849.39387512 60037247.978387
vector 39483  IntersectionExampleScenario.node[9].veinsmobility  posx  ETV
vector 39484  IntersectionExampleScenario.node[9].veinsmobility  posy  ETV
vector 39485  IntersectionExampleScenario.node[9].veinsmobility  speed  ETV
vector 39486  IntersectionExampleScenario.node[9].veinsmobility  acceleration  ETV
vector 39487  IntersectionExampleScenario.node[9].veinsmobility  co2emission  ETV
vector 39490  IntersectionExampleScenario.node[10].veinsmobility  posx  ETV
vector 39491  IntersectionExampleScenario.node[10].veinsmobility  posy  ETV
39438	71361 4903 440 2011 23.75 62.25 155 0.973 11.90022389248 500.52554855579 2781.3659964429
39437	76264 4407 440 2011 23.75 62.25 155 -3.2846527099609 2.5 39.869146347046 241.68198894314
39436	80671 4785 433 2011 23.5 62.25 156 5.6500000953674 16 2213.0224189758 32437.108865515
39435	85456 5096 426 2011 23.25 62.25 157 184.17810058594 486.85000610352 62504.023132324 26643239.540765
39434	90552 5102 426 2011 23.25 62.25 157 235.76922607422 486.85000610352 68152.313781738 30531874.819582
vector 39492  IntersectionExampleScenario.node[10].veinsmobility  speed  ETV
vector 39493  IntersectionExampleScenario.node[10].veinsmobility  acceleration  ETV
vector 39494  IntersectionExampleScenario.node[10].veinsmobility  co2emission  ETV
vector 39497  IntersectionExampleScenario.node[11].veinsmobility  posx  ETV
vector 39498  IntersectionExampleScenario.node[11].veinsmobility  posy  ETV
vector 39499  IntersectionExampleScenario.node[11].veinsmobility  speed  ETV
vector 39500  IntersectionExampleScenario.node[11].veinsmobility  acceleration  ETV
vector 39501  IntersectionExampleScenario.node[11].veinsmobility  co2emission  ETV
39445	96302 4848 640 2456 30.75 69 154 0.973 12.26218747632 533.02259441089 3190.2203084424
39444	101150 4435 640 2456 30.75 69 154 -3.6457443237305 2.5 41.90619468689 317.99586693198
39443	105585 4710 631 2456 30.5 69 155 5.6500000953674 16.5 2185.8369178772 32485.118364684
39442	110295 5085 622 2456 30.25 69 156 486.85000610352 733.45152282715 83730.508331299 45825480.905279
39441	115380 5104 622 2456 30.25 69 156 486.80258178711 785.82187652588 89336.96421051 52860661.291031
vector 39504  IntersectionExampleScenario.node[12].veinsmobility  posx  ETV
vector 39505  IntersectionExampleScenario.node[12].veinsmobility  posy  ETV
vector 39506  IntersectionExampleScenario.node[12].veinsmobility  speed  ETV
vector 39507  IntersectionExampleScenario.node[12].veinsmobility  acceleration  ETV
vector 39508  IntersectionExampleScenario.node[12].veinsmobility  co2emission  ETV
vector 39511  IntersectionExampleScenario.node[13].veinsmobility  posx  ETV
vector 39512  IntersectionExampleScenario.node[13].veinsmobility  posy  ETV
vector 39513  IntersectionExampleScenario.node[13].veinsmobility  speed  ETV
vector 39514  IntersectionExampleScenario.node[13].veinsmobility  acceleration  ETV
vector 39515  IntersectionExampleScenario.node[13].veinsmobility  co2emission  ETV
vector 39518  IntersectionExampleScenario.node[14].veinsmobility  posx  ETV
vector 39519  IntersectionExampleScenario.node[14].veinsmobility  posy  ETV
vector 39520  IntersectionExampleScenario.node[14].veinsmobility  speed  ETV
vector 39521  IntersectionExampleScenario.node[14].veinsmobility  acceleration  ETV
vector 39522  IntersectionExampleScenario.node[14].veinsmobility  co2emission  ETV
39452	121687 6533 743 3736 33.5 89.5 225 0.94600815583079 12.353032912318 622.67270219371 3401.8576958721
39451	128220 6116 743 3736 33.5 89.5 225 -7.3781127929688 4 41.566686630249 513.09755075364
39450	134336 6204 732 3736 33.25 89.5 226 0 16.625 2198.0250682831 32460.399357508
39449	140540 7436 721 3736 33 89.5 227 184.17810058594 486.85000610352 95653.573699951 42305473.308303
39448	147976 7464 721 3736 33 89.5 227 238.00720214844 486.85000610352 102590.16049194 47400708.442693
39473	155440 5752 1158 3766 43.75 90.25 187 0.973 11.648172402475 558.88495261113 2924.7338242502
39472	161192 5313 1158 3766 43.75 90.25 187 -7.7750473022461 4 38.511121749878 476.5267975717
39471	166505 5634 1145 3766 43.5 90.25 188 0 15.64999961853 2201.8212580681 31157.430440079
39470	172139 6226 1132 3766 43.25 90.25 189 483.14999389648 785.82187652588 105923.10712433 61267917.279537
39469	178365 6229 1132 3766 43.25 90.25 189 483.14999389648 733.24354553223 99704.304046631 53623047.590087
39466	184594 5984 1099 3829 42.5 92 199 0.973 11.200708441096 536.18779617442 2625.6716168617
39465	190578 6195 1099 3829 42.5 92 199 -2.0687103271484 2.5 35.795072555542 292.54033414792
39464	196773 6459 1088 3829 42.25 92 200 1.2995414733887 15.02499961853 2219.3962478638 28828.490456413
39463	203232 6601 1077 3829 42 92 201 184.17810058594 734.44786071777 90460.340011597 45018055.733671
39462	209833 6631 1077 3829 42 92 201 486.85000610352 486.85000610352 97856.851226807 47641608.617041
vector 39525  IntersectionExampleScenario.node[15].veinsmobility  posx  ETV
vector 39526  IntersectionExampleScenario.node[15].veinsmobility  posy  ETV
vector 39532  IntersectionExampleScenario.node[16].veinsmobility  posx  ETV
vector 39533  IntersectionExampleScenario.node[16].veinsmobility  posy  ETV
vector 39527  IntersectionExampleScenario.node[15].veinsmobility  speed  ETV
vector 39528  IntersectionExampleScenario.node[15].veinsmobility  acceleration  ETV
vector 39529  IntersectionExampleScenario.node[15].veinsmobility  co2emission  ETV
vector 39534  IntersectionExampleScenario.node[16].veinsmobility  speed  ETV
39480	217097 4776 1708 3899 56.25 94.25 153 0.973 12.11213407897 534.86928155357 3305.3829363463
39479	221873 4718 1708 3899 56.25 94.25 153 -2.8774108886719 2.5 41.057416915894 260.02494984802
39478	226591 4858 1697 3899 56 94.25 154 5.6500000953674 16.293121337891 2214.8006649017 32639.828770074
39477	231449 5082 1686 3899 55.75 94.25 155 184.17810058594 732.21403503418 69164.722824097 34870126.388583
39476	236531 5115 1686 3899 55.75 94.25 155 486.85000610352 486.85000610352 75461.750946045 36738553.908664
vector 39539  IntersectionExampleScenario.node[17].veinsmobility  posx  ETV
vector 39540  IntersectionExampleScenario.node[17].veinsmobility  posy  ETV
vector 39535  IntersectionExampleScenario.node[16].veinsmobility  acceleration  ETV
vector 39536  IntersectionExampleScenario.node[16].veinsmobility  co2emission  ETV
vector 39541  IntersectionExampleScenario.node[17].veinsmobility  speed  ETV
vector 39542  IntersectionExampleScenario.node[17].veinsmobility  acceleration  ETV
vector 39543  IntersectionExampleScenario.node[17].veinsmobility  co2emission  ETV
39487	242216 5012 1789 4025 58 97 157 0.973 11.810082123732 512.93932836398 2877.3139614037
39486	247228 4611 1789 4025 58 97 157 -3.3704605102539 2.5 39.699392318726 285.64294964468
39485	251839 4891 1776 4025 57.75 97 158 5.6500000953674 15.875 2176.3486232758 31459.085007323
39484	256730 5236 1763 4025 57.5 97 159 486.7971496582 785.82187652588 91065.169410706 53881364.292944
39483	261966 5240 1763 4025 57.5 97 159 238.85522460938 483.14999389648 68924.2862854 30765730.409292
vector 39546  IntersectionExampleScenario.node[18].veinsmobility  posx  ETV
vector 39547  IntersectionExampleScenario.node[18].veinsmobility  posy  ETV
vector 39548  IntersectionExampleScenario.node[18].veinsmobility  speed  ETV
vector 39553  IntersectionExampleScenario.node[19].veinsmobility  posx  ETV
vector 39554  IntersectionExampleScenario.node[19].veinsmobility  posy  ETV
vector 39549  IntersectionExampleScenario.node[18].veinsmobility  acceleration  ETV
vector 39550  IntersectionExampleScenario.node[18].veinsmobility  co2emission  ETV
vector 39555  IntersectionExampleScenario.node[19].veinsmobility  speed  ETV
vector 39556  IntersectionExampleScenario.node[19].veinsmobility  acceleration  ETV
vector 39557  IntersectionExampleScenario.node[19].veinsmobility  co2emission  ETV
39459	268008 7095 1099 4348 42.5 103.25 244 0.97223939240464 11.648172402475 617.16076922157 3008.479423937
39458	275103 6371 1099 4348 42.5 103.25 244 -7.1630640029907 4 38.680875778198 475.21258299252
39457	281474 6762 1088 4348 42.25 103.25 245 0 15.64999961853 2217.0010960102 31576.666777073
39456	288236 8131 1077 4348 42 103.25 246 486.85000610352 486.85000610352 119765.10150146 58307640.396976
39455	296367 8119 1077 4348 42 103.25 246 235.46472167969 785.82187652588 126148.02484894 68868608.568351
39494	304486 5259 2041 4453 62.75 105 170 0.973 12.099024792222 543.68995949179 3054.154144141
39493	309745 5329 2041 4453 62.75 105 170 -2.1327362060547 2.5 40.887662887573 287.97915141831
39492	315074 5512 2026 4453 62.5 105 171 4.8170304298401 16.27499961853 2209.9835972786 30876.102116855
39491	320586 5697 2011 4453 62.25 105 172 486.85000610352 486.85000610352 83738.201049805 40767943.692195
39490	326283 5678 2011 4453 62.25 105 172 238.68463134766 785.82187652588 90166.691963196 51261420.494946
vector 39560  IntersectionExampleScenario.node[20].veinsmobility  posx  ETV
vector 39561  IntersectionExampleScenario.node[20].veinsmobility  posy  ETV
vector 39562  IntersectionExampleScenario.node[20].veinsmobility  speed  ETV
vector 39563  IntersectionExampleScenario.node[20].veinsmobility  acceleration  ETV
vector 39564  IntersectionExampleScenario.node[20].veinsmobility  co2emission  ETV
39501	332362 5490 2150 4624 64.5 107.75 174 0.96333723109819 12.099024792222 592.05063430252 3555.8134505198
39500	337852 5285 2150 4624 64.5 107.75 174 -4.5 2.5 40.208654403687 441.45510673603
39499	343137 5509 2133 4624 64.25 107.75 175 4.9745516777039 16.27499961853 2278.0337147713 31730.206492522
39498	348646 5834 2116 4624 64 107.75 176 238.84155273438 486.85000610352 77640.581085205 35210472.71364
39497	354480 5831 2116 4624 64 107.75 176 483.14999389648 805.05782318115 101668.35623932 60782626.003411
vector 39567  IntersectionExampleScenario.node[21].veinsmobility  posx  ETV
vector 39568  IntersectionExampleScenario.node[21].veinsmobility  posy  ETV
vector 39569  IntersectionExampleScenario.node[21].veinsmobility  speed  ETV
vector 39570  IntersectionExampleScenario.node[21].veinsmobility  acceleration  ETV
vector 39571  IntersectionExampleScenario.node[21].veinsmobility  co2emission  ETV
39515	360712 5166 2610 4897 71 112 165 0.973 11.36141391502 523.71179887048 3075.5331504838
39514	365878 5030 2610 4897 71 112 165 -4.5 2.5 36.98334312439 317.95564427725
39513	370908 5207 2589 4897 70.75 112 166 5.6500000953674 15.25 2185.954834938 29973.034975319
39512	376115 5552 2568 4897 70.5 112 167 486.85000610352 733.78526306152 89711.647689819 49149476.786088
39511	381667 5548 2568 4897 70.5 112 167 486.79797363281 785.82187652588 95546.137001038 56434966.448315
vector 39574  IntersectionExampleScenario.node[22].veinsmobility  posx  ETV
vector 39575  IntersectionExampleScenario.node[22].veinsmobility  posy  ETV
vector 39576  IntersectionExampleScenario.node[22].veinsmobility  speed  ETV
vector 39577  IntersectionExampleScenario.node[22].veinsmobility  acceleration  ETV
vector 39578  IntersectionExampleScenario.node[22].veinsmobility  co2emission  ETV
vector 39581  IntersectionExampleScenario.node[23].veinsmobility  posx  ETV
vector 39582  IntersectionExampleScenario.node[23].veinsmobility  posy  ETV
vector 39583  IntersectionExampleScenario.node[23].veinsmobility  speed  ETV
vector 39584  IntersectionExampleScenario.node[23].veinsmobility  acceleration  ETV
vector 39585  IntersectionExampleScenario.node[23].veinsmobility  co2emission  ETV
vector 39588  IntersectionExampleScenario.node[24].veinsmobility  posx  ETV
vector 39589  IntersectionExampleScenario.node[24].veinsmobility  posy  ETV
vector 39590  IntersectionExampleScenario.node[24].veinsmobility  speed  ETV
vector 39591  IntersectionExampleScenario.node[24].veinsmobility  acceleration  ETV
vector 39592  IntersectionExampleScenario.node[24].veinsmobility  co2emission  ETV
39508	388418 6492 2511 5574 69.75 124.25 219 0.973 12.553400930962 628.82714424916 3562.8169057073
39507	394910 6035 2511 5574 69.75 124.25 219 -8.9821796417236 4 42.924703598022 535.86533100577
39506	400945 6237 2492 5574 69.5 124.25 220 0 16.89999961853 2211.4189648628 33293.556406766
39505	407182 7371 2473 5574 69.25 124.25 221 237.029296875 785.82187652588 113856.15294647 62613702.772869
39504	414553 7392 2473 5574 69.25 124.25 221 483.14999389648 483.14999389648 106776.14865112 51588895.56908
39522	421945 5756 3108 5649 77.75 125.5 192 0.94566218171372 12.553400930962 583.32365331435 3457.117239449
39521	427701 5942 3108 5649 77.75 125.5 192 -2.3492584228516 2.5 43.603719711304 343.74446891987
39520	433643 6219 3091 5649 77.5 125.5 193 0.97061032056808 16.89999961853 2202.3669173121 31078.849434137
39519	439862 6487 3074 5649 77.25 125.5 194 482.96765136719 785.82187652588 108867.64540863 62903164.088909
39518	446349 6500 3074 5649 77.25 125.5 194 483.14999389648 732.23460388184 101453.67874146 54026906.601555
39529	452849 5109 3899 6069 94.25 132.5 154 0.973 11.648172402475 470.76336111104 2462.8829942015
39528	457958 4683 3899 6069 94.25 132.5 154 -3.1964302062988 2.5 38.341367721558 191.50694040174
39527	462641 5013 3888 6069 94 132.5 155 5.6500000953674 15.64999961853 2217.1332235336 32350.133803948
39526	467654 5248 3879 6069 93.75 132.5 156 184.17810058594 733.26556396484 69982.629013062 35533807.531706
39525	472902 5279 3879 6069 93.75 132.5 156 486.85000610352 486.85000610352 75948.600952148 36975576.837107
39536	478181 5264 3910 6150 94.5 134 159 0.973 11.200708441096 454.35911991347 2192.1748794677
39535	483445 4768 3910 6150 94.5 134 159 -2.95166015625 2.5 35.795072555542 167.30536973474
39534	488213 5201 3899 6150 94.25 134 160 5.6500000953674 15.02499961853 2213.0065221786 31118.933839836
39533	493414 5434 3888 6150 94 134 161 237.48425292969 785.82187652588 83850.817939758 47922565.566958
39532	498848 5448 3888 6150 94 134 161 483.14999389648 483.14999389648 77787.149017334 37582860.57295
39543	504296 5420 3936 6254 95 136 165 0.973 11.810082123732 525.82673292037 2840.6155043866
39542	509716 4972 3936 6254 95 136 165 -4.5 2.5 39.529638290405 295.23960367093
39541	514688 5304 3923 6254 94.75 136 166 5.6500000953674 15.875 2283.2953271866 32899.227162953
39540	519992 5637 3910 6254 94.5 136 167 486.85000610352 809.56562805176 97354.176445007 58894075.505329
39539	525629 5654 3910 6254 94.5 136 167 235.76245117188 483.14999389648 72574.663543701 32477796.974446
vector 39595  IntersectionExampleScenario.node[25].veinsmobility  posx  ETV
vector 39596  IntersectionExampleScenario.node[25].veinsmobility  posy  ETV
vector 39602  IntersectionExampleScenario.node[26].veinsmobility  posx  ETV
vector 39603  IntersectionExampleScenario.node[26].veinsmobility  posy  ETV
vector 39597  IntersectionExampleScenario.node[25].veinsmobility  speed  ETV
vector 39598  IntersectionExampleScenario.node[25].veinsmobility  acceleration  ETV
vector 39599  IntersectionExampleScenario.node[25].veinsmobility  co2emission  ETV
vector 39604  IntersectionExampleScenario.node[26].veinsmobility  speed  ETV
vector 39605  IntersectionExampleScenario.node[26].veinsmobility  acceleration  ETV
vector 39606  IntersectionExampleScenario.node[26].veinsmobility  co2emission  ETV
vector 39609  IntersectionExampleScenario.node[27].veinsmobility  posx  ETV
vector 39610  IntersectionExampleScenario.node[27].veinsmobility  posy  ETV
vector 39611  IntersectionExampleScenario.node[27].veinsmobility  speed  ETV
vector 39616  IntersectionExampleScenario.node[28].veinsmobility  posx  ETV
vector 39617  IntersectionExampleScenario.node[28].veinsmobility  posy  ETV
vector 39612  IntersectionExampleScenario.node[27].veinsmobility  acceleration  ETV
vector 39613  IntersectionExampleScenario.node[27].veinsmobility  co2emission  ETV
vector 39618  IntersectionExampleScenario.node[28].veinsmobility  speed  ETV
vector 39619  IntersectionExampleScenario.node[28].veinsmobility  acceleration  ETV
vector 39620  IntersectionExampleScenario.node[28].veinsmobility  co2emission  ETV
vector 39623  IntersectionExampleScenario.node[29].veinsmobility  posx  ETV
vector 39624  IntersectionExampleScenario.node[29].veinsmobility  posy  ETV
vector 39625  IntersectionExampleScenario.node[29].veinsmobility  speed  ETV
vector 39626  IntersectionExampleScenario.node[29].veinsmobility  acceleration  ETV
vector 39627  IntersectionExampleScenario.node[29].veinsmobility  co2emission  ETV
vector 39630  IntersectionExampleScenario.node[30].veinsmobility  posx  ETV
vector 39631  IntersectionExampleScenario.node[30].veinsmobility  posy  ETV
vector 39632  IntersectionExampleScenario.node[30].veinsmobility  speed  ETV
vector 39637  IntersectionExampleScenario.node[31].veinsmobility  posx  ETV
vector 39638  IntersectionExampleScenario.node[31].veinsmobility  posy  ETV
vector 39633  IntersectionExampleScenario.node[30].veinsmobility  acceleration  ETV
vector 39634  IntersectionExampleScenario.node[30].veinsmobility  co2emission  ETV
vector 39639  IntersectionExampleScenario.node[31].veinsmobility  speed  ETV
vector 39640  IntersectionExampleScenario.node[31].veinsmobility  acceleration  ETV
vector 39641  IntersectionExampleScenario.node[31].veinsmobility  co2emission  ETV
39557	534090 6120 4213 7002 101 149.25 194 0.973 11.450879080643 552.28349679093 2781.9667877422
39556	540210 5665 4213 7002 101 149.25 194 -8.2128305435181 4 36.813589096069 483.09835472119
39555	545875 5971 4198 7002 100.75 149.25 195 0 15.375 2179.3116796017 30171.351539771
39554	551846 6658 4183 7002 100.5 149.25 196 483.14999389648 732.66677856445 103263.71929932 55457322.824699
39553	558504 6633 4183 7002 100.5 149.25 196 184.17810058594 486.85000610352 80483.784240723 34992118.46046
vector 39644  IntersectionExampleScenario.node[32].veinsmobility  posx  ETV
vector 39645  IntersectionExampleScenario.node[32].veinsmobility  posy  ETV
vector 39646  IntersectionExampleScenario.node[32].veinsmobility  speed  ETV
vector 39647  IntersectionExampleScenario.node[32].veinsmobility  acceleration  ETV
vector 39648  IntersectionExampleScenario.node[32].veinsmobility  co2emission  ETV
39571	565538 5540 4791 7283 110.25 153 172 0.973 11.36141391502 544.30021981169 3019.1671956816
39570	571078 5289 4791 7283 110.25 153 172 -3.1028747558594 2.5 37.15309715271 336.40472616636
39569	576367 5561 4774 7283 110 153 173 5.6500000953674 15.25 2187.495698452 29265.05749186
39568	581928 5896 4757 7283 109.75 153 174 236.1376953125 483.14999389648 75679.604095459 33889210.76266
39567	587824 5896 4757 7283 109.75 153 174 184.17810058594 483.18023681641 69483.497680664 29519958.253838
vector 39651  IntersectionExampleScenario.node[33].veinsmobility  posx  ETV
vector 39652  IntersectionExampleScenario.node[33].veinsmobility  posy  ETV
vector 39653  IntersectionExampleScenario.node[33].veinsmobility  speed  ETV
vector 39654  IntersectionExampleScenario.node[33].veinsmobility  acceleration  ETV
vector 39655  IntersectionExampleScenario.node[33].veinsmobility  co2emission  ETV
vector 39658  IntersectionExampleScenario.node[34].veinsmobility  posx  ETV
vector 39659  IntersectionExampleScenario.node[34].veinsmobility  posy  ETV
vector 39660  IntersectionExampleScenario.node[34].veinsmobility  speed  ETV
vector 39661  IntersectionExampleScenario.node[34].veinsmobility  acceleration  ETV
vector 39662  IntersectionExampleScenario.node[34].veinsmobility  co2emission  ETV
39550	594522 7255 4183 7888 100.5 160.5 241 0.973 11.450879080643 600.64736947008 2855.1899593342
39549	601777 6622 4183 7888 100.5 160.5 241 -6.771110534668 4 36.98334312439 456.08187023827
39548	608399 6973 4170 7888 100.25 160.5 242 0 15.375 2209.3351578712 30725.483349737
39547	615372 8232 4157 7888 100 160.5 243 184.17810058594 732.67367553711 110934.14802551 54868747.414443
39546	623604 8261 4157 7888 100 160.5 243 486.85000610352 486.85000610352 118304.55148315 57596571.611647
39564	631865 6593 4607 7888 107.5 160.5 213 0.973 11.36141391502 573.31041248869 2810.8690527084
39563	638458 6331 4607 7888 107.5 160.5 213 -7.0030527114868 4 37.32285118103 465.54416013018
39562	644789 6341 4590 7888 107.25 160.5 214 0 15.25 2179.6468288898 30242.44443299
39561	651130 7300 4573 7888 107 160.5 215 486.63604736328 785.82187652588 119272.52106476 68138011.645064
39560	658430 7244 4573 7888 107 160.5 215 236.31317138672 483.14999389648 95526.421234131 43489616.711977
39585	665674 5447 5347 8056 120 162.5 171 0.973 11.90022389248 547.17005445329 3132.7857802669
39584	671121 5418 5347 8056 120 162.5 171 -2.5247688293457 2.5 39.699392318726 309.22378429707
39583	676539 5552 5333 8056 119.75 162.5 172 5.1790690422058 16 2212.0845446587 30470.451789261
39582	682091 5871 5319 8056 119.5 162.5 173 483.14999389648 785.82187652588 98424.243690491 57777150.623562
39581	687962 5861 5319 8056 119.5 162.5 173 483.14999389648 733.5827331543 91845.955459595 49744204.219471
39578	693823 5672 5280 8077 118.75 162.75 177 0.973 11.200708441096 520.71270178094 2614.9525000999
39577	699495 5705 5280 8077 118.75 162.75 177 -2.1354446411133 2.5 37.15309715271 256.20931979109
39576	705200 5923 5267 8077 118.5 162.75 178 4.4688863754272 15.245265960693 2217.1606388092 29644.739751219
39575	711123 6058 5254 8077 118.25 162.75 179 184.17810058594 733.42901611328 80190.385681152 40139470.075422
39574	717181 6088 5254 8077 118.25 162.75 179 486.85000610352 486.85000610352 87146.151092529 42427104.191296
vector 39665  IntersectionExampleScenario.node[35].veinsmobility  posx  ETV
vector 39666  IntersectionExampleScenario.node[35].veinsmobility  posy  ETV
vector 39667  IntersectionExampleScenario.node[35].veinsmobility  speed  ETV
vector 39668  IntersectionExampleScenario.node[35].veinsmobility  acceleration  ETV
vector 39669  IntersectionExampleScenario.node[35].veinsmobility  co2emission  ETV
39592	723670 6208 5559 8863 124 173.25 198 0.973 11.648172402475 570.81427313783 2958.7454942191
39591	729878 5723 5559 8863 124 173.25 198 -7.7750473022461 4 38.511121749878 480.0267975717
39590	735601 6071 5544 8863 123.75 173.25 199 0 15.64999961853 2214.2518191338 31459.954721098
39589	741672 6800 5529 8863 123.5 173.25 200 486.85000610352 486.85000610352 97370.001220703 47404585.688598
39588	748472 6785 5529 8863 123.5 173.25 200 236.02325439453 785.82187652588 103257.66889191 57475162.774069
vector 39672  IntersectionExampleScenario.node[36].veinsmobility  posx  ETV
vector 39673  IntersectionExampleScenario.node[36].veinsmobility  posy  ETV
vector 39674  IntersectionExampleScenario.node[36].veinsmobility  speed  ETV
vector 39675  IntersectionExampleScenario.node[36].veinsmobility  acceleration  ETV
vector 39676  IntersectionExampleScenario.node[36].veinsmobility  co2emission  ETV
vector 39679  IntersectionExampleScenario.node[37].veinsmobility  posx  ETV
vector 39680  IntersectionExampleScenario.node[37].veinsmobility  posy  ETV
vector 39681  IntersectionExampleScenario.node[37].veinsmobility  speed  ETV
vector 39682  IntersectionExampleScenario.node[37].veinsmobility  acceleration  ETV
vector 39683  IntersectionExampleScenario.node[37].veinsmobility  co2emission  ETV
vector 39686  IntersectionExampleScenario.node[38].veinsmobility  posx  ETV
vector 39687  IntersectionExampleScenario.node[38].veinsmobility  posy  ETV
vector 39688  IntersectionExampleScenario.node[38].veinsmobility  speed  ETV
vector 39689  IntersectionExampleScenario.node[38].veinsmobility  acceleration  ETV
vector 39690  IntersectionExampleScenario.node[38].veinsmobility  co2emission  ETV
39613	756460 5129 6667 9425 144.25 182.5 154 0.973 11.648172402475 472.37063277033 2468.6221642102
39612	761589 4656 6667 9425 144.25 182.5 154 -3.3639106750488 2.5 38.511121749878 193.7515100159
39611	766245 5034 6652 9425 144 182.5 155 5.6500000953674 15.64999961853 2221.4249238968 32483.241731561
39610	771279 5304 6637 9425 143.75 182.5 156 486.85000610352 486.85000610352 75948.600952148 36975576.837107
39609	776583 5272 6637 9425 143.75 182.5 156 235.65411376953 785.82187652588 81264.277168274 46487544.880767
vector 39693  IntersectionExampleScenario.node[39].veinsmobility  posx  ETV
vector 39694  IntersectionExampleScenario.node[39].veinsmobility  posy  ETV
vector 39695  IntersectionExampleScenario.node[39].veinsmobility  speed  ETV
vector 39696  IntersectionExampleScenario.node[39].veinsmobility  acceleration  ETV
vector 39697  IntersectionExampleScenario.node[39].veinsmobility  co2emission  ETV
39641	782256 4835 6866 9505 147.25 183.75 147 0.973 12.099024792222 504.2496368812 2997.6686953496
39640	787091 4630 6866 9505 147.25 183.75 147 -4.5 2.5 40.887662887573 287.69837764005
39639	791721 4733 6849 9505 147 183.75 148 5.6500000953674 16.27499961853 2087.5812797546 30617.497781997
39638	796454 5063 6832 9505 146.75 183.75 149 483.14999389648 732.77891540527 80057.397857666 43917740.913387
39637	801517 5050 6832 9505 146.75 183.75 149 213.88439941406 486.85000610352 61091.728759766 26390215.763456
vector 39700  IntersectionExampleScenario.node[40].veinsmobility  posx  ETV
vector 39701  IntersectionExampleScenario.node[40].veinsmobility  posy  ETV
vector 39702  IntersectionExampleScenario.node[40].veinsmobility  speed  ETV
vector 39707  IntersectionExampleScenario.node[41].veinsmobility  posx  ETV
vector 39708  IntersectionExampleScenario.node[41].veinsmobility  posy  ETV
vector 39703  IntersectionExampleScenario.node[40].veinsmobility  acceleration  ETV
vector 39704  IntersectionExampleScenario.node[40].veinsmobility  co2emission  ETV
vector 39709  IntersectionExampleScenario.node[41].veinsmobility  speed  ETV
39627	807200 5314 6762 9657 145.75 186 162 0.973 11.90022389248 510.58114506029 2793.9024547973
39626	812514 5217 6762 9657 145.75 186 162 -4.5 2.5 39.699392318726 273.50963213916
39625	817731 5249 6745 9657 145.5 186 163 5.6500000953674 16 2204.5366077423 31273.388283231
39624	822980 5570 6728 9657 145.25 186 164 483.14999389648 732.33969116211 87413.872344971 47542040.490882
39623	828550 5557 6728 9657 145.25 186 164 184.17810058594 486.87576293945 64188.951477051 27077543.552785
vector 39710  IntersectionExampleScenario.node[41].veinsmobility  acceleration  ETV
vector 39711  IntersectionExampleScenario.node[41].veinsmobility  co2emission  ETV
vector 39714  IntersectionExampleScenario.node[42].veinsmobility  posx  ETV
vector 39715  IntersectionExampleScenario.node[42].veinsmobility  posy  ETV
39634	834430 5671 6832 9942 146.75 189.75 173 0.973 11.36141391502 516.20266020851 2572.6426287746
39633	840101 5698 6832 9942 146.75 189.75 173 -3.2908630371094 2.5 37.32285118103 249.81647430495
39632	845799 5600 6815 9942 146.5 189.75 174 5.6500000953674 15.252880096436 2279.1837520599 31286.032648088
39631	851399 5945 6796 9942 146.25 189.75 175 235.07904052734 483.14999389648 76110.859863281 34086430.425906
39630	857344 5937 6796 9942 146.25 189.75 175 162.00311279297 483.25289916992 67311.157073975 28164226.307968
vector 39716  IntersectionExampleScenario.node[42].veinsmobility  speed  ETV
vector 39717  IntersectionExampleScenario.node[42].veinsmobility  acceleration  ETV
vector 39718  IntersectionExampleScenario.node[42].veinsmobility  co2emission  ETV
39599	863528 6715 6503 10377 141.5 195.5 217 0.973 11.36141391502 575.34898256408 2792.2960017943
39598	870243 6094 6503 10377 141.5 195.5 217 -8.487024307251 4 37.15309715271 476.36028990498
39597	876337 6447 6488 10377 141.25 195.5 218 0 15.25 2176.7447767258 30094.703459203
39596	882784 7447 6475 10377 141 195.5 219 184.17810058594 483.36395263672 91127.592529297 39902963.011475
39595	890231 7404 6475 10377 141 195.5 219 486.85000610352 733.15849304199 114957.48980713 61391822.456666
39606	897635 6850 6518 10445 141.75 196.5 220 0.973 11.450879080643 594.36175061022 2883.6508746672
39605	904485 6199 6518 10445 141.75 196.5 220 -4.5 2.5 38.341367721558 472.22098945189
39604	910684 6631 6503 10445 141.5 196.5 221 0 15.398722648621 2299.411813736 31928.324961477
39603	917315 7540 6488 10445 141.25 196.5 222 159.76721191406 487.06832885742 90019.003967285 38977042.253785
39602	924855 7571 6488 10445 141.25 196.5 222 237.94390869141 486.85000610352 99742.157073975 45882040.651113
vector 39721  IntersectionExampleScenario.node[43].veinsmobility  posx  ETV
vector 39722  IntersectionExampleScenario.node[43].veinsmobility  posy  ETV
vector 39728  IntersectionExampleScenario.node[44].veinsmobility  posx  ETV
vector 39729  IntersectionExampleScenario.node[44].veinsmobility  posy  ETV
vector 39723  IntersectionExampleScenario.node[43].veinsmobility  speed  ETV
vector 39724  IntersectionExampleScenario.node[43].veinsmobility  acceleration  ETV
vector 39725  IntersectionExampleScenario.node[43].veinsmobility  co2emission  ETV
vector 39730  IntersectionExampleScenario.node[44].veinsmobility  speed  ETV
vector 39731  IntersectionExampleScenario.node[44].veinsmobility  acceleration  ETV
vector 39732  IntersectionExampleScenario.node[44].veinsmobility  co2emission  ETV
39648	933228 6132 7074 10641 150.25 199 196 0.973 11.200708441096 536.96581147315 2666.862989444
39647	939360 6415 7074 10641 150.25 199 196 -2.2215919494629 2.5 37.15309715271 286.91574415002
39646	945775 6509 7055 10641 150 199 197 2.0425636768341 15.262068748474 2203.8390598297 28601.293774718
39645	952284 6728 7036 10641 149.75 199 198 184.17810058594 486.85000610352 80420.39743042 34527452.025293
39644	959012 6746 7036 10641 149.75 199 198 237.80334472656 486.85000610352 87896.121673584 40065001.759422
vector 39735  IntersectionExampleScenario.node[45].veinsmobility  posx  ETV
vector 39736  IntersectionExampleScenario.node[45].veinsmobility  posy  ETV
vector 39737  IntersectionExampleScenario.node[45].veinsmobility  speed  ETV
vector 39738  IntersectionExampleScenario.node[45].veinsmobility  acceleration  ETV
vector 39739  IntersectionExampleScenario.node[45].veinsmobility  co2emission  ETV
39662	966159 5375 7699 10773 158.25 200.5 170 0.973 12.099024792222 589.00968490597 3460.5072746539
39661	971534 5354 7699 10773 158.25 200.5 170 -3.111291885376 2.5000019073486 43.943227767944 364.64588883495
39660	976888 5532 7678 10773 158 200.5 171 5.6500000953674 16.662275314331 2180.2139596939 30201.941385046
39659	982420 5866 7657 10773 157.75 200.5 172 184.17810058594 483.14999389648 68500.292297363 28979326.692407
39658	988286 5882 7657 10773 157.75 200.5 172 486.85000610352 732.14283752441 91286.725708008 49338686.866296
vector 39742  IntersectionExampleScenario.node[46].veinsmobility  posx  ETV
vector 39743  IntersectionExampleScenario.node[46].veinsmobility  posy  ETV
vector 39749  IntersectionExampleScenario.node[47].veinsmobility  posx  ETV
vector 39750  IntersectionExampleScenario.node[47].veinsmobility  posy  ETV
vector 39744  IntersectionExampleScenario.node[46].veinsmobility  speed  ETV
vector 39745  IntersectionExampleScenario.node[46].veinsmobility  acceleration  ETV
vector 39746  IntersectionExampleScenario.node[46].veinsmobility  co2emission  ETV
vector 39751  IntersectionExampleScenario.node[47].veinsmobility  speed  ETV
vector 39752  IntersectionExampleScenario.node[47].veinsmobility  acceleration  ETV
vector 39753  IntersectionExampleScenario.node[47].veinsmobility  co2emission  ETV
vector 39756  IntersectionExampleScenario.node[48].veinsmobility  posx  ETV
vector 39757  IntersectionExampleScenario.node[48].veinsmobility  posy  ETV
vector 39758  IntersectionExampleScenario.node[48].veinsmobility  speed  ETV
vector 39759  IntersectionExampleScenario.node[48].veinsmobility  acceleration  ETV
vector 39760  IntersectionExampleScenario.node[48].veinsmobility  co2emission  ETV
vector 39763  IntersectionExampleScenario.node[49].veinsmobility  posx  ETV
vector 39764  IntersectionExampleScenario.node[49].veinsmobility  posy  ETV
vector 39765  IntersectionExampleScenario.node[49].veinsmobility  speed  ETV
vector 39766  IntersectionExampleScenario.node[49].veinsmobility  acceleration  ETV
vector 39767  IntersectionExampleScenario.node[49].veinsmobility  co2emission  ETV
39620	995772 7740 6698 11655 144.75 208.5 256 0.973 11.481647711142 628.67120851029 2978.0935966885
39619	1003512 7150 6698 11655 144.75 208.5 256 -6.9135808944702 4 36.813589096069 475.76146263503
39618	1010662 7408 6683 11655 144.5 208.5 257 0 15.417946815491 2268.3287642002 31067.850082608
39617	1018070 8781 6667 11655 144.25 208.5 258 486.85000610352 732.10182189941 133917.66210938 70599488.053543
39616	1026851 8834 6667 11655 144.25 208.5 258 486.63604736328 809.56562805176 143276.12194824 82178756.543898
39655	1035685 6742 7534 11810 156.25 209.75 215 0.973 11.450879080643 561.73997148487 2762.0411701766
39654	1042427 7043 7534 11810 156.25 209.75 215 -3.8066713809967 2.5000019073486 36.98334312439 332.45566373459
39653	1049470 7186 7513 11810 156 209.75 216 0 15.375 2194.925495524 28658.012213606
39652	1056656 7426 7492 11810 155.75 209.75 217 238.62091064453 486.85000610352 97186.703735352 44597677.554914
39651	1064082 7443 7492 11810 155.75 209.75 217 483.03668212891 785.82187652588 121038.5982132 69447722.886677
vector 39770  IntersectionExampleScenario.node[50].veinsmobility  posx  ETV
vector 39771  IntersectionExampleScenario.node[50].veinsmobility  posy  ETV
vector 39772  IntersectionExampleScenario.node[50].veinsmobility  speed  ETV
vector 39773  IntersectionExampleScenario.node[50].veinsmobility  acceleration  ETV
vector 39774  IntersectionExampleScenario.node[50].veinsmobility  co2emission  ETV
vector 39777  IntersectionExampleScenario.node[51].veinsmobility  posx  ETV
vector 39778  IntersectionExampleScenario.node[51].veinsmobility  posy  ETV
vector 39779  IntersectionExampleScenario.node[51].veinsmobility  speed  ETV
vector 39780  IntersectionExampleScenario.node[51].veinsmobility  acceleration  ETV
vector 39781  IntersectionExampleScenario.node[51].veinsmobility  co2emission  ETV
vector 39784  IntersectionExampleScenario.node[52].veinsmobility  posx  ETV
vector 39785  IntersectionExampleScenario.node[52].veinsmobility  posy  ETV
vector 39786  IntersectionExampleScenario.node[52].veinsmobility  speed  ETV
vector 39787  IntersectionExampleScenario.node[52].veinsmobility  acceleration  ETV
vector 39788  IntersectionExampleScenario.node[52].veinsmobility  co2emission  ETV
vector 39791  IntersectionExampleScenario.node[53].veinsmobility  posx  ETV
vector 39792  IntersectionExampleScenario.node[53].veinsmobility  posy  ETV
vector 39793  IntersectionExampleScenario.node[53].veinsmobility  speed  ETV
vector 39794  IntersectionExampleScenario.node[53].veinsmobility  acceleration  ETV
vector 39795  IntersectionExampleScenario.node[53].veinsmobility  co2emission  ETV
vector 39798  IntersectionExampleScenario.node[54].veinsmobility  posx  ETV
vector 39799  IntersectionExampleScenario.node[54].veinsmobility  posy  ETV
vector 39800  IntersectionExampleScenario.node[54].veinsmobility  speed  ETV
vector 39805  IntersectionExampleScenario.node[55].veinsmobility  posx  ETV
vector 39806  IntersectionExampleScenario.node[55].veinsmobility  posy  ETV
vector 39801  IntersectionExampleScenario.node[54].veinsmobility  acceleration  ETV
vector 39802  IntersectionExampleScenario.node[54].veinsmobility  co2emission  ETV
vector 39807  IntersectionExampleScenario.node[55].veinsmobility  speed  ETV
vector 39808  IntersectionExampleScenario.node[55].veinsmobility  acceleration  ETV
vector 39809  IntersectionExampleScenario.node[55].veinsmobility  co2emission  ETV
39669	1073931 7241 8679 13868 170.5 229.5 237 0.94600815583079 12.26218747632 634.09289189722 3386.7062739605
39668	1081172 6747 8679 13868 170.5 229.5 237 -9.2430820465088 4 41.566686630249 582.84096835286
39667	1087919 6808 8662 13868 170.25 229.5 238 0 16.5 2172.7979631424 32086.909479603
39666	1094727 8250 8644 13868 170 229.5 239 184.17810058594 483.36395263672 101095.37191772 44763166.056039
39665	1102977 8205 8644 13868 170 229.5 239 486.85000610352 731.94525146484 124078.51315308 65422607.183923
39683	1111182 6510 9314 14015 180.75 231.25 203 0.973 12.099024792222 600.70276242841 3253.7931201266
39682	1117692 6266 9314 14015 180.75 231.25 203 -8.3547468185425 4 41.566686630249 500.8180553912
39681	1123958 6550 9299 14015 180.5 231.25 204 0 16.375417709351 2208.3818360567 32414.962859492
39680	1130508 7128 9283 14015 180.25 231.25 205 483.14999389648 785.82187652588 113546.22774506 64832977.245533
39679	1137636 7122 9283 14015 180.25 231.25 205 483.14999389648 734.87208557129 107182.50195312 57075866.360942
39718	1144758 5555 9984 14099 190.25 232.25 169 0.973 12.099024792222 558.59031503119 3290.146957244
39717	1150313 5116 9984 14099 190.25 232.25 169 -2.4756317138672 2.5000019073486 41.396924972534 318.28730339037
39716	1155429 5649 9963 14099 190 232.25 170 5.1783761978149 16.27499961853 2215.798058033 31094.824188683
39715	1161078 5947 9942 14099 189.75 232.25 171 184.17810058594 486.85000610352 68598.969299316 29279401.203204
39714	1167025 5975 9942 14099 189.75 232.25 171 235.45196533203 486.85000610352 75128.59475708 33979781.471579
vector 39812  IntersectionExampleScenario.node[56].veinsmobility  posx  ETV
vector 39813  IntersectionExampleScenario.node[56].veinsmobility  posy  ETV
vector 39814  IntersectionExampleScenario.node[56].veinsmobility  speed  ETV
vector 39815  IntersectionExampleScenario.node[56].veinsmobility  acceleration  ETV
vector 39816  IntersectionExampleScenario.node[56].veinsmobility  co2emission  ETV
39704	1173401 6460 9638 14262 185.75 234.25 195 0.973 11.648172402475 552.30522354604 2833.1665042366
39703	1179861 6491 9638 14262 185.75 234.25 195 -4.5 2.5 38.171613693237 409.58712457576
39702	1186352 6662 9621 14262 185.5 234.25 196 0 15.64999961853 2081.8743988257 28671.259234865
39701	1193014 6858 9604 14262 185.25 234.25 197 483.14999389648 755.61251068115 107893.4719162 60549017.987853
39700	1199872 6864 9604 14262 185.25 234.25 197 483.14999389648 733.04766845703 103598.92507935 55523273.299991
39690	1206736 6931 9408 14346 182.25 235.25 213 0.973 11.54047740176 650.41510999673 3384.8632034709
39689	1213667 6832 9408 14346 182.25 235.25 213 -4.5 2.5 39.190130233765 566.18313598499
39688	1220499 7278 9391 14346 182 235.25 214 0 15.5 2290.7759928517 30508.368282579
39687	1227777 7434 9374 14346 181.75 235.25 215 237.78698730469 806.11563110352 115209.64070129 66600911.248101
39686	1235211 7490 9374 14346 181.75 235.25 215 483.14999389648 483.14999389648 103877.24868774 50188292.069467
vector 39819  IntersectionExampleScenario.node[57].veinsmobility  posx  ETV
vector 39820  IntersectionExampleScenario.node[57].veinsmobility  posy  ETV
vector 39821  IntersectionExampleScenario.node[57].veinsmobility  speed  ETV
vector 39822  IntersectionExampleScenario.node[57].veinsmobility  acceleration  ETV
vector 39823  IntersectionExampleScenario.node[57].veinsmobility  co2emission  ETV
39697	1243102 7172 9505 14638 183.75 238.5 220 0.973 11.36141391502 595.98387669027 2747.9010239322
39696	1250274 7306 9505 14638 183.75 238.5 220 -4.5 2.5 37.492597579956 393.14284145333
39695	1257580 7380 9488 14638 183.5 238.5 221 2.1018478870392 15.2524061203 2298.3716044426 29056.470768631
39694	1264960 7729 9471 14638 183.25 238.5 222 486.79748535156 816.26250457764 128208.39334106 76560821.802041
39693	1272689 7734 9471 14638 183.25 238.5 222 238.38562011719 483.14999389648 99059.654052734 45232399.675995
39732	1280423 5541 10557 14680 198 239 165 0.973 11.289192727077 506.39691694222 2767.7205118322
39731	1285964 5243 10557 14680 198 239 165 -3.6899662017822 2.5 35.625318527222 290.85913905073
39730	1291207 5503 10536 14680 197.75 239 166 5.6500000953674 15.148958206177 2181.2218203545 29793.848725273
39729	1296710 5823 10515 14680 197.5 239 167 184.17810058594 483.31286621094 66436.823425293 28214362.619987
39728	1302533 5836 10515 14680 197.5 239 167 486.85000610352 732.61930847168 89822.702941895 49269452.831448
39739	1308369 5476 10750 14758 200.25 240 160 0.973 11.54047740176 523.67384299167 2888.1696627908
39738	1313845 4939 10750 14758 200.25 240 160 -4.5 2.5 38.680875778198 276.52247082745
39737	1318784 5398 10727 14758 200 240 161 5.6500000953674 15.5 2293.1800518036 33340.114082883
39736	1324182 5646 10704 14758 199.75 240 162 167.29217529297 734.93717956543 71421.000015259 36034043.538717
39735	1329828 5669 10704 14758 199.75 240 162 486.85000610352 486.85000610352 78869.70098877 38397714.407765
39711	1335497 7177 9676 14777 186.25 240.25 217 0.973 11.855652239799 624.88047182526 3039.3428651802
39710	1342674 7457 9676 14777 186.25 240.25 217 -4.5 2.5000019073486 41.086561203003 402.30960531671
39709	1350131 7562 9657 14777 186 240.25 218 1.6013495922089 15.938216209412 2335.8256523609 30430.717223043
39708	1357693 7623 9638 14777 185.75 240.25 219 483.14999389648 816.63594818115 126000.46935272 74963241.905787
39707	1365316 7645 9638 14777 185.75 240.25 219 483.14999389648 733.74615478516 114246.9029541 60691004.684866
vector 39826  IntersectionExampleScenario.node[58].veinsmobility  posx  ETV
vector 39827  IntersectionExampleScenario.node[58].veinsmobility  posy  ETV
vector 39833  IntersectionExampleScenario.node[59].veinsmobility  posx  ETV
vector 39834  IntersectionExampleScenario.node[59].veinsmobility  posy  ETV
vector 39828  IntersectionExampleScenario.node[58].veinsmobility  speed  ETV
vector 39829  IntersectionExampleScenario.node[58].veinsmobility  acceleration  ETV
vector 39830  IntersectionExampleScenario.node[58].veinsmobility  co2emission  ETV
vector 39835  IntersectionExampleScenario.node[59].veinsmobility  speed  ETV
vector 39836  IntersectionExampleScenario.node[59].veinsmobility  acceleration  ETV
vector 39837  IntersectionExampleScenario.node[59].veinsmobility  co2emission  ETV
39676	1373763 7919 9222 15058 179.25 243.5 258 0.973 11.450879080643 624.13267116725 2876.5591040358
39675	1381682 6806 9222 15058 179.25 243.5 258 -34.889461517334 4 37.492597579956 1551.8797018247
39674	1388488 7398 9207 15058 179 243.5 259 0 15.375 2203.5443534851 31201.549482852
39673	1395886 9048 9192 15058 178.75 243.5 260 236.23193359375 486.85000610352 118025.4536438 54724920.588729
39672	1404934 9047 9192 15058 178.75 243.5 260 483.14999389648 785.82187652588 141395.40641022 79016110.882123
vector 39840  IntersectionExampleScenario.node[60].veinsmobility  posx  ETV
vector 39841  IntersectionExampleScenario.node[60].veinsmobility  posy  ETV
39753	1414135 5690 10875 15150 201.5 244.5 173 0.973 11.648172402475 534.47293691325 2877.6704062046
39752	1419825 5547 10875 15150 201.5 244.5 173 -2.1361312866211 2.5 39.529638290405 279.97845189971
39751	1425372 5857 10848 15150 201.25 244.5 174 4.0043506622314 15.64999961853 2217.3861036301 30630.813402072
39750	1431229 6124 10821 15150 201 244.5 175 486.85000610352 486.85000610352 85198.751068115 41479012.477524
39749	1437353 6112 10821 15150 201 244.5 175 237.033203125 785.82187652588 91594.207344055 52029549.829419
vector 39847  IntersectionExampleScenario.node[61].veinsmobility  posx  ETV
vector 39848  IntersectionExampleScenario.node[61].veinsmobility  posy  ETV
vector 39842  IntersectionExampleScenario.node[60].veinsmobility  speed  ETV
vector 39843  IntersectionExampleScenario.node[60].veinsmobility  acceleration  ETV
vector 39844  IntersectionExampleScenario.node[60].veinsmobility  co2emission  ETV
vector 39849  IntersectionExampleScenario.node[61].veinsmobility  speed  ETV
vector 39850  IntersectionExampleScenario.node[61].veinsmobility  acceleration  ETV
vector 39851  IntersectionExampleScenario.node[61].veinsmobility  co2emission  ETV
vector 39854  IntersectionExampleScenario.node[62].veinsmobility  posx  ETV
vector 39855  IntersectionExampleScenario.node[62].veinsmobility  posy  ETV
vector 39856  IntersectionExampleScenario.node[62].veinsmobility  speed  ETV
vector 39857  IntersectionExampleScenario.node[62].veinsmobility  acceleration  ETV
vector 39858  IntersectionExampleScenario.node[62].veinsmobility  co2emission  ETV
39767	1444514 5499 11593 15681 208 249.25 166 0.973 11.648172402475 571.95830487383 3563.140093488
39766	1450013 5181 11593 15681 208 249.25 166 -3.2432556152344 2.5 37.832105636597 377.45507251998
39765	1455194 5517 11562 15681 207.75 249.25 167 5.6500000953674 15.64999961853 2180.7933235168 29796.325542732
39764	1460711 5870 11531 15681 207.5 249.25 168 486.85000610352 732.4388885498 90001.027313232 49153643.656712
39763	1466581 5875 11531 15681 207.5 249.25 168 486.85000610352 785.82187652588 96235.45488739 56879013.682983
39725	1472456 7144 10536 16116 197.75 254.25 227 0.973 11.450879080643 587.70820592432 2826.4493040049
39724	1479600 6470 10536 16116 197.75 254.25 227 -7.457010269165 4 37.32285118103 469.21634007258
39723	1486070 6862 10515 16116 197.5 254.25 228 0 15.375 2186.460111618 30448.875603049
39722	1492932 8014 10496 16116 197.25 254.25 229 483.14999389648 734.27958679199 119249.54872131 63216854.810411
39721	1500946 7987 10496 16116 197.25 254.25 229 184.17810058594 486.85000610352 96103.752960205 42375598.783288
39746	1508933 7258 10848 16211 201.25 255.5 218 0.973 11.810082123732 600.4250864317 2991.4048059697
39745	1516191 7149 10848 16211 201.25 255.5 218 -4.5 2.5000004768372 39.699392318726 443.7494890971
39744	1523340 7372 10821 16211 201 255.5 219 0 15.875 2225.7602119334 31335.058353936
39743	1530712 7696 10796 16211 200.75 255.5 220 236.11126708984 483.14999389648 98231.331970215 44888639.115404
39742	1538408 7676 10796 16211 200.75 255.5 220 174.53436279297 483.14999389648 90623.697357178 39414788.563287
vector 39861  IntersectionExampleScenario.node[63].veinsmobility  posx  ETV
vector 39862  IntersectionExampleScenario.node[63].veinsmobility  posy  ETV
vector 39863  IntersectionExampleScenario.node[63].veinsmobility  speed  ETV
vector 39864  IntersectionExampleScenario.node[63].veinsmobility  acceleration  ETV
vector 39865  IntersectionExampleScenario.node[63].veinsmobility  co2emission  ETV
vector 39868  IntersectionExampleScenario.node[64].veinsmobility  posx  ETV
vector 39869  IntersectionExampleScenario.node[64].veinsmobility  posy  ETV
vector 39870  IntersectionExampleScenario.node[64].veinsmobility  speed  ETV
vector 39875  IntersectionExampleScenario.node[65].veinsmobility  posx  ETV
vector 39876  IntersectionExampleScenario.node[65].veinsmobility  posy  ETV
vector 39871  IntersectionExampleScenario.node[64].veinsmobility  acceleration  ETV
vector 39872  IntersectionExampleScenario.node[64].veinsmobility  co2emission  ETV
vector 39877  IntersectionExampleScenario.node[65].veinsmobility  speed  ETV
vector 39882  IntersectionExampleScenario.node[66].veinsmobility  posx  ETV
vector 39883  IntersectionExampleScenario.node[66].veinsmobility  posy  ETV
vector 39878  IntersectionExampleScenario.node[65].veinsmobility  acceleration  ETV
vector 39879  IntersectionExampleScenario.node[65].veinsmobility  co2emission  ETV
vector 39884  IntersectionExampleScenario.node[66].veinsmobility  speed  ETV
vector 39885  IntersectionExampleScenario.node[66].veinsmobility  acceleration  ETV
vector 39886  IntersectionExampleScenario.node[66].veinsmobility  co2emission  ETV
vector 39889  IntersectionExampleScenario.node[67].veinsmobility  posx  ETV
vector 39890  IntersectionExampleScenario.node[67].veinsmobility  posy  ETV
vector 39891  IntersectionExampleScenario.node[67].veinsmobility  speed  ETV
vector 39892  IntersectionExampleScenario.node[67].veinsmobility  acceleration  ETV
vector 39893  IntersectionExampleScenario.node[67].veinsmobility  co2emission  ETV
vector 39896  IntersectionExampleScenario.node[68].veinsmobility  posx  ETV
vector 39897  IntersectionExampleScenario.node[68].veinsmobility  posy  ETV
vector 39898  IntersectionExampleScenario.node[68].veinsmobility  speed  ETV
vector 39899  IntersectionExampleScenario.node[68].veinsmobility  acceleration  ETV
vector 39900  IntersectionExampleScenario.node[68].veinsmobility  co2emission  ETV
39788	1548490 5904 13184 17018 221.5 265.5 177 0.973 11.450879080643 540.22845311784 2782.7596335374
39787	1554394 5422 13184 17018 221.5 265.5 177 -7.3439340591431 4 37.32285118103 468.21975753043
39786	1559816 5830 13157 17018 221.25 265.5 178 0 15.375 2201.1615531445 30669.924930393
39785	1565646 6252 13130 17018 221 265.5 179 483.14999389648 785.82187652588 101089.92140961 58964213.565285
39784	1571898 6260 13130 17018 221 265.5 179 483.14999389648 733.21885681152 95024.842483521 51461905.645908
39760	1578158 7342 11473 17018 207 265.5 235 0.973 11.450879080643 595.12238027862 2842.9471978221
39759	1585500 6989 11473 17018 207 265.5 235 -7.9278340339661 4 37.15309715271 474.4755754172
39758	1592489 7046 11444 17018 206.75 265.5 236 0 15.375 2198.9512678385 30572.014522623
39757	1599535 8270 11415 17018 206.5 265.5 237 184.17810058594 486.85000610352 99870.553222656 44152899.647362
39756	1607805 8289 11415 17018 206.5 265.5 237 237.33026123047 486.85000610352 106857.00866699 49290897.371434
39774	1616094 7313 11969 17118 211 266.5 223 0.973 11.54047740176 584.64834002896 2828.3381062981
39773	1623407 7224 11969 17118 211 266.5 223 -4.2824249267578 2.5 37.492597579956 384.38917455699
39772	1630631 7492 11936 17118 210.75 266.5 224 0 15.5 2239.5909352321 30766.724536196
39771	1638123 7830 11903 17118 210.5 266.5 225 177.97814941406 733.302734375 101389.498703 50028689.814426
39770	1645953 7875 11903 17118 210.5 266.5 225 486.85000610352 486.85000610352 109541.25137329 53330158.899673
39795	1653828 5479 13673 17268 227.25 268 164 0.973 11.36141391502 540.25445483416 3030.1878596974
39794	1659307 5170 13673 17268 227.25 268 164 -3.8830223083496 2.5 38.511121749878 344.84371161895
39793	1664477 5467 13652 17268 227 268 165 5.6500000953674 15.320225715637 2186.9305934906 30421.353734612
39792	1669944 5796 13631 17268 226.75 268 166 486.85000610352 785.82187652588 94882.043739319 55981496.766513
39791	1675740 5716 13631 17268 226.75 268 166 236.42163085938 483.14999389648 72010.776794434 32177304.067262
39781	1681456 6318 13030 17343 220 268.75 196 0.973 11.200708441096 542.14732372908 2629.4258858753
39780	1687774 6506 13030 17343 220 268.75 196 -2.1383256912231 2.5 37.15309715271 286.33811204987
39779	1694280 6756 13005 17343 219.75 268.75 197 1.9732397794724 15.194343566895 2218.7524396181 29034.177896724
39778	1701036 6898 12979 17343 219.5 268.75 198 184.17810058594 733.88226318359 88687.435394287 43955939.45072
39777	1707934 6931 12979 17343 219.5 268.75 198 486.85000610352 486.85000610352 96396.301208496 46930539.831713
39816	1714865 5244 14220 17693 233.75 272.25 155 0.973 11.776295233509 525.14067364378 3101.7282056233
39815	1720109 4925 14220 17693 233.75 272.25 155 -3.9011039733887 2.5 39.699392318726 281.91454120842
39814	1725034 5180 14199 17693 233.5 272.25 156 5.6500000953674 15.901288032532 2201.2104225159 32052.589277215
39813	1730214 5491 14178 17693 233.25 272.25 157 482.96713256836 785.82187652588 89921.363471985 53257475.457506
39812	1735705 5491 14178 17693 233.25 272.25 157 483.14999389648 732.13706970215 84023.625045776 45897206.640062
39823	1741196 5256 14413 17886 236 274.25 154 0.973 12.126421833199 523.11897335943 3045.8862664121
39822	1746452 4934 14413 17886 236 274.25 154 -4.0787887573242 2.5 40.887662887573 252.52761400605
39821	1751386 5171 14390 17886 235.75 274.25 155 5.6500000953674 16.312824249268 2280.3479890823 34335.56139108
39820	1756557 5451 14367 17886 235.5 274.25 156 238.23217773438 802.70781707764 82887.472862244 48404690.817517
39819	1762008 5460 14367 17886 235.5 274.25 156 483.14999389648 483.14999389648 75371.399047852 36415690.989939
vector 39903  IntersectionExampleScenario.node[69].veinsmobility  posx  ETV
vector 39904  IntersectionExampleScenario.node[69].veinsmobility  posy  ETV
vector 39910  IntersectionExampleScenario.node[70].veinsmobility  posx  ETV
vector 39911  IntersectionExampleScenario.node[70].veinsmobility  posy  ETV
vector 39905  IntersectionExampleScenario.node[69].veinsmobility  speed  ETV
vector 39912  IntersectionExampleScenario.node[70].veinsmobility  speed  ETV
vector 39906  IntersectionExampleScenario.node[69].veinsmobility  acceleration  ETV
vector 39907  IntersectionExampleScenario.node[69].veinsmobility  co2emission  ETV
vector 39913  IntersectionExampleScenario.node[70].veinsmobility  acceleration  ETV
vector 39914  IntersectionExampleScenario.node[70].veinsmobility  co2emission  ETV
vector 39917  IntersectionExampleScenario.node[71].veinsmobility  posx  ETV
vector 39918  IntersectionExampleScenario.node[71].veinsmobility  posy  ETV
vector 39919  IntersectionExampleScenario.node[71].veinsmobility  speed  ETV
vector 39924  IntersectionExampleScenario.node[72].veinsmobility  posx  ETV
vector 39925  IntersectionExampleScenario.node[72].veinsmobility  posy  ETV
vector 39920  IntersectionExampleScenario.node[71].veinsmobility  acceleration  ETV
vector 39921  IntersectionExampleScenario.node[71].veinsmobility  co2emission  ETV
vector 39931  IntersectionExampleScenario.node[73].veinsmobility  posx  ETV
vector 39932  IntersectionExampleScenario.node[73].veinsmobility  posy  ETV
vector 39926  IntersectionExampleScenario.node[72].veinsmobility  speed  ETV
vector 39927  IntersectionExampleScenario.node[72].veinsmobility  acceleration  ETV
vector 39928  IntersectionExampleScenario.node[72].veinsmobility  co2emission  ETV
vector 39933  IntersectionExampleScenario.node[73].veinsmobility  speed  ETV
vector 39934  IntersectionExampleScenario.node[73].veinsmobility  acceleration  ETV
vector 39935  IntersectionExampleScenario.node[73].veinsmobility  co2emission  ETV
vector 39938  IntersectionExampleScenario.node[74].veinsmobility  posx  ETV
vector 39939  IntersectionExampleScenario.node[74].veinsmobility  posy  ETV
vector 39940  IntersectionExampleScenario.node[74].veinsmobility  speed  ETV
vector 39941  IntersectionExampleScenario.node[74].veinsmobility  acceleration  ETV
vector 39942  IntersectionExampleScenario.node[74].veinsmobility  co2emission  ETV
39809	1769874 6456 13781 18342 228.5 278.25 200 0.973 11.648172402475 574.85748966816 2949.8776713495
39808	1776330 5830 13781 18342 228.5 278.25 200 -6.8117866516113 4 38.850629806519 469.91515502781
39807	1782160 6280 13758 18342 228.25 278.25 201 0 15.64999961853 2207.1536474228 31385.929364603
39806	1788440 7065 13735 18342 228 278.25 202 235.67944335938 486.85000610352 89926.740478516 41091274.48185
39805	1795505 7061 13735 18342 228 278.25 202 483.14999389648 785.82187652588 112360.3975296 64449294.165997
vector 39945  IntersectionExampleScenario.node[75].veinsmobility  posx  ETV
vector 39946  IntersectionExampleScenario.node[75].veinsmobility  posy  ETV
vector 39947  IntersectionExampleScenario.node[75].veinsmobility  speed  ETV
vector 39948  IntersectionExampleScenario.node[75].veinsmobility  acceleration  ETV
vector 39949  IntersectionExampleScenario.node[75].veinsmobility  co2emission  ETV
vector 39952  IntersectionExampleScenario.node[76].veinsmobility  posx  ETV
vector 39953  IntersectionExampleScenario.node[76].veinsmobility  posy  ETV
vector 39954  IntersectionExampleScenario.node[76].veinsmobility  speed  ETV
vector 39955  IntersectionExampleScenario.node[76].veinsmobility  acceleration  ETV
vector 39956  IntersectionExampleScenario.node[76].veinsmobility  co2emission  ETV
39802	1803368 7714 13735 19760 228 289.75 248 0.973 11.200708441096 599.66856340137 2736.8366064512
39801	1811082 6946 13735 19760 228 289.75 248 -7.5492105484009 4 35.964826583862 468.45118037559
39800	1818028 7390 13714 19760 227.75 289.75 249 0 15.02499961853 2206.3847739697 30287.269027981
39799	1825418 8751 13693 19760 227.5 289.75 250 483.14999389648 483.14999389648 120787.49847412 58358479.150543
39798	1834169 8716 13693 19760 227.5 289.75 250 184.17810058594 732.29058837891 114249.77952576 56480066.671472
39830	1842885 6399 14897 19936 241.75 291.5 200 0.973 11.648172402475 556.18729595229 2793.5096515934
39829	1849284 6798 14897 19936 241.75 291.5 200 -2.1501121520996 2.5 38.341367721558 301.94619950935
39828	1856082 6913 14874 19936 241.5 291.5 201 0.9246199131012 15.64999961853 2212.6415233612 29533.555916815
39827	1862995 7071 14853 19936 241.25 291.5 202 483.14999389648 483.14999389648 97596.29876709 47153651.153639
39826	1870066 7037 14853 19936 241.25 291.5 202 184.17810058594 732.55084228516 90683.359588623 44849892.956055
39837	1877103 6827 14920 20136 242 293.5 207 0.973 11.457667829191 587.88467680554 2798.7022450835
39836	1883930 7020 14920 20136 242 293.5 207 -4.5 2.5000009536743 38.511121749878 404.47200896144
39835	1890950 7152 14897 20136 241.75 293.5 208 2.1091272830963 15.50804901123 2316.2473566532 30766.296592507
39834	1898102 7315 14874 20136 241.5 293.5 209 483.14999389648 483.14999389648 100978.34872437 48787688.569854
39833	1905417 7284 14874 20136 241.5 293.5 209 159.76721191406 734.08433532715 91117.075439453 44528207.927251
39851	1912701 6933 15229 20747 245.25 300 220 0.973 11.90022389248 603.06399561788 3105.7504690688
39850	1919634 6296 15229 20747 245.25 300 220 -6.9388580322266 4 39.869146347046 483.42859168984
39849	1925930 6658 15202 20747 245 300 221 0 16 2206.8656001091 31827.855714461
39848	1932588 7746 15175 20747 244.75 300 222 184.17810058594 486.85000610352 93108.556518555 41053697.184403
39847	1940334 7764 15175 20747 244.75 300 222 235.83721923828 486.85000610352 99808.665924072 45947644.150783
39844	1948098 7007 15202 20768 245 300.25 222 0.973 11.648172402475 592.250938066 2973.5802173126
39843	1955105 6435 15202 20768 245 300.25 222 -7.4922199249268 4 38.171613693237 484.73603371837
39842	1961540 6771 15175 20768 244.75 300.25 223 0 15.64999961853 2209.8923177719 31296.209765439
39841	1968311 7817 15150 20768 244.5 300.25 224 237.14044189453 785.82187652588 115280.98113251 63492436.820562
39840	1976128 7840 15150 20768 244.5 300.25 224 483.14999389648 483.14999389648 108225.59863281 52289197.318887
39858	1983968 7327 15449 20902 247.25 302 220 0.973 11.648172402475 600.50339282851 2970.4597119175
39857	1991295 7287 15449 20902 247.25 302 220 -4.5 2.5000002384186 38.511121749878 465.4229970874
39856	1998582 7493 15420 20902 247 302 221 0 15.64999961853 2250.4854455665 31277.775478326
39855	2006075 7746 15391 20902 246.75 302 222 486.73937988281 802.70781707764 124465.15362549 72005589.677023
39854	2013821 7753 15391 20902 246.75 302 222 237.17474365234 483.14999389648 99121.260528564 45289428.735198
39879	2021574 5669 16643 21076 261.5 304.5 173 0.97223939240464 11.810082123732 538.00111104162 3066.711229833
39878	2027243 5601 16643 21076 261.5 304.5 173 -2.6741180419922 2.5 38.680875778198 305.73678033728
39877	2032844 5753 16622 21076 261.25 304.5 174 5.6500000953674 15.875 2177.6528949738 29289.685517032
39876	2038597 6121 16601 21076 261 304.5 175 486.80142211914 785.82187652588 99815.649330139 58684002.917051
39875	2044718 6123 16601 21076 261 304.5 175 238.50469970703 483.14999389648 76518.302947998 34394592.06267
39900	2050841 5441 16993 21136 265.25 305.5 162 0.973 11.648172402475 537.50469997878 3070.1471281254
39899	2056282 5107 16993 21136 265.25 305.5 162 -4.5 2.5 39.869146347046 317.42783424855
39898	2061389 5476 16968 21136 265 305.5 163 5.6500000953674 15.64999961853 2254.4490280151 32149.394909195
39897	2066865 5728 16943 21136 264.75 305.5 164 235.7021484375 793.78281402588 86387.898658752 49782724.870702
39896	2072593 5740 16943 21136 264.75 305.5 164 483.14999389648 483.14999389648 79236.598999023 38283162.322756
vector 39959  IntersectionExampleScenario.node[77].veinsmobility  posx  ETV
vector 39960  IntersectionExampleScenario.node[77].veinsmobility  posy  ETV
vector 39961  IntersectionExampleScenario.node[77].veinsmobility  speed  ETV
vector 39962  IntersectionExampleScenario.node[77].veinsmobility  acceleration  ETV
vector 39963  IntersectionExampleScenario.node[77].veinsmobility  co2emission  ETV
vector 39966  IntersectionExampleScenario.node[78].veinsmobility  posx  ETV
vector 39967  IntersectionExampleScenario.node[78].veinsmobility  posy  ETV
vector 39968  IntersectionExampleScenario.node[78].veinsmobility  speed  ETV
vector 39969  IntersectionExampleScenario.node[78].veinsmobility  acceleration  ETV
vector 39970  IntersectionExampleScenario.node[78].veinsmobility  co2emission  ETV
39865	2079135 6762 16460 21544 259 312.75 216 0.93438186594183 12.26218747632 607.75016288905 3337.1034772903
39864	2085897 6428 16460 21544 259 312.75 216 -7.2880325317383 4 41.057416915894 496.17494209542
39863	2092325 6505 16441 21544 258.75 312.75 217 0 16.5 2183.7521471977 31817.285757586
39862	2098830 7544 16422 21544 258.5 312.75 218 486.85000610352 734.55892944336 114072.22434998 60706993.19893
39861	2106374 7622 16422 21544 258.5 312.75 218 486.63604736328 785.82187652588 120343.67620087 68380659.199247
39872	2113996 7001 16601 21609 261 314 213 0.973 12.099024792222 606.3367355171 3242.5407469599
39871	2120997 7017 16601 21609 261 314 213 -4.5 2.5 40.038900375366 460.79020742045
39870	2128014 7133 16582 21609 260.75 314 214 0 16.27499961853 2293.5508958828 32963.168084679
39869	2135147 7524 16563 21609 260.5 314 215 486.85000610352 486.85000610352 104672.75131226 50959929.615243
39868	2142671 7455 16563 21609 260.5 314 215 235.53552246094 803.92188262939 112650.72837067 63533655.668059
39886	2150126 7146 16689 21726 262 316.25 218 0.973 12.26218747632 631.58489163443 3463.3391683045
39885	2157272 7195 16689 21726 262 316.25 218 -4.5 2.5 41.396924972534 483.30961563779
39884	2164467 7319 16666 21726 261.75 316.25 219 0 16.5 2301.52462098 32273.651312296
39883	2171786 7694 16643 21726 261.5 316.25 220 486.85000610352 731.38827514648 114809.57052612 60895538.882786
39882	2179480 7675 16643 21726 261.5 316.25 220 486.85000610352 817.04688262939 125001.31814575 73405716.684556
vector 39973  IntersectionExampleScenario.node[79].veinsmobility  posx  ETV
vector 39974  IntersectionExampleScenario.node[79].veinsmobility  posy  ETV
vector 39975  IntersectionExampleScenario.node[79].veinsmobility  speed  ETV
vector 39976  IntersectionExampleScenario.node[79].veinsmobility  acceleration  ETV
vector 39977  IntersectionExampleScenario.node[79].veinsmobility  co2emission  ETV
39921	2187556 5638 18097 21861 276.25 318.75 171 0.973 11.648172402475 550.47434128053 3140.7283454198
39920	2193194 5394 18097 21861 276.25 318.75 171 -3.7655601501465 2.5 38.511121749878 331.19761282943
39919	2198588 5723 18070 21861 276 318.75 172 5.6500000953674 15.64999961853 2201.0803751945 29756.801188631
39918	2204311 6051 18043 21861 275.75 318.75 173 237.88470458984 486.85000610352 75908.968017578 34286979.373637
39917	2210362 6046 18043 21861 275.75 318.75 173 482.94439697266 785.82187652588 98667.87638092 58055726.64186
39928	2216408 5864 18157 21926 276.75 320 174 0.973 11.54047740176 554.72558925772 3019.8694029472
39927	2222272 5617 18157 21926 276.75 320 174 -5.1802406311035 2.5 38.511121749878 330.44155794197
39926	2227889 5883 18126 21926 276.5 320 175 5.6500000953674 15.5 2304.5722904205 31720.331223558
39925	2233772 6160 18097 21926 276.25 320 176 486.85000610352 486.85000610352 85685.601074219 41716035.405967
39924	2239932 6145 18097 21926 276.25 320 176 238.73937988281 809.56562805176 94405.305503845 55324446.755615
vector 39980  IntersectionExampleScenario.node[80].veinsmobility  posx  ETV
vector 39981  IntersectionExampleScenario.node[80].veinsmobility  posy  ETV
vector 39987  IntersectionExampleScenario.node[81].veinsmobility  posx  ETV
vector 39988  IntersectionExampleScenario.node[81].veinsmobility  posy  ETV
39893	2246385 7600 16759 22114 262.75 324 246 0.973 11.648172402475 616.29195261113 2980.5908352502
39892	2253985 6895 16759 22114 262.75 324 246 -9.1790456771851 4 38.511121749878 510.4470294996
39891	2260880 7217 16736 22114 262.5 324 247 0 15.64999961853 2185.7574701309 30987.784202307
39890	2268097 8674 16712 22114 262.25 324 248 483.14999389648 734.23628234863 128272.87496948 67473173.344119
39889	2276771 8658 16712 22114 262.25 324 248 184.17810058594 486.85000610352 105227.95504761 46725497.607679
vector 39982  IntersectionExampleScenario.node[80].veinsmobility  speed  ETV
vector 39989  IntersectionExampleScenario.node[81].veinsmobility  speed  ETV
vector 39983  IntersectionExampleScenario.node[80].veinsmobility  acceleration  ETV
vector 39984  IntersectionExampleScenario.node[80].veinsmobility  co2emission  ETV
vector 39990  IntersectionExampleScenario.node[81].veinsmobility  acceleration  ETV
vector 39991  IntersectionExampleScenario.node[81].veinsmobility  co2emission  ETV
39914	2285923 6469 17963 22192 275 325.5 203 0.973 11.810082123732 569.20510365 3017.2836679166
39913	2292392 6655 17963 22192 275 325.5 203 -3.9583497047424 2.5000009536743 39.869146347046 349.30167339929
39912	2299047 6818 17936 22192 274.75 325.5 204 0 15.875 2177.3282033317 29188.497746748
39911	2305865 7147 17909 22192 274.5 325.5 205 238.67559814453 483.14999389648 91158.993133545 41512591.296759
39910	2313012 7144 17909 22192 274.5 325.5 205 184.17810058594 483.14999389648 83881.602752686 36160886.439787
39956	2320156 5560 19052 22239 283.75 326.5 172 0.973 12.099024792222 554.94017196469 3334.0389942335
39955	2325716 5427 19052 22239 283.75 326.5 172 -3.7838172912598 2.5 40.038900375366 321.92117942057
39954	2331143 5812 19017 22239 283.5 326.5 173 5.128734588623 16.27499961853 2224.9659585953 30639.513010751
39953	2336955 6091 18982 22239 283.25 326.5 174 483.14999389648 483.14999389648 84068.098937988 40617501.488778
39952	2343046 6063 18982 22239 283.25 326.5 174 184.17810058594 734.82637023926 77495.235183716 38631114.219099
vector 39994  IntersectionExampleScenario.node[82].veinsmobility  posx  ETV
vector 39995  IntersectionExampleScenario.node[82].veinsmobility  posy  ETV
vector 40001  IntersectionExampleScenario.node[83].veinsmobility  posx  ETV
vector 40002  IntersectionExampleScenario.node[83].veinsmobility  posy  ETV
vector 39996  IntersectionExampleScenario.node[82].veinsmobility  speed  ETV
vector 39997  IntersectionExampleScenario.node[82].veinsmobility  acceleration  ETV
vector 39998  IntersectionExampleScenario.node[82].veinsmobility  co2emission  ETV
vector 40003  IntersectionExampleScenario.node[83].veinsmobility  speed  ETV
vector 40004  IntersectionExampleScenario.node[83].veinsmobility  acceleration  ETV
vector 40005  IntersectionExampleScenario.node[83].veinsmobility  co2emission  ETV
vector 40008  IntersectionExampleScenario.node[84].veinsmobility  posx  ETV
vector 40009  IntersectionExampleScenario.node[84].veinsmobility  posy  ETV
vector 40010  IntersectionExampleScenario.node[84].veinsmobility  speed  ETV
vector 40011  IntersectionExampleScenario.node[84].veinsmobility  acceleration  ETV
vector 40012  IntersectionExampleScenario.node[84].veinsmobility  co2emission  ETV
39907	2350312 7580 17963 22785 275 335.5 243 0.973 11.36141391502 604.69626042801 2830.6065820282
39906	2357892 6757 17963 22785 275 335.5 243 -7.1783409118652 4 37.32285118103 499.43719846835
39905	2364649 7169 17936 22785 274.75 335.5 244 0 15.25 2179.8482515812 30338.361891906
39904	2371818 8546 17909 22785 274.5 335.5 245 184.17810058594 483.36395263672 103431.94665527 45722072.672705
39903	2380364 8511 17909 22785 274.5 335.5 245 486.85000610352 733.68673706055 127629.07579041 67572543.12668
vector 40015  IntersectionExampleScenario.node[85].veinsmobility  posx  ETV
vector 40016  IntersectionExampleScenario.node[85].veinsmobility  posy  ETV
vector 40017  IntersectionExampleScenario.node[85].veinsmobility  speed  ETV
vector 40018  IntersectionExampleScenario.node[85].veinsmobility  acceleration  ETV
vector 40019  IntersectionExampleScenario.node[85].veinsmobility  co2emission  ETV
vector 40022  IntersectionExampleScenario.node[86].veinsmobility  posx  ETV
vector 40023  IntersectionExampleScenario.node[86].veinsmobility  posy  ETV
vector 40024  IntersectionExampleScenario.node[86].veinsmobility  speed  ETV
vector 40025  IntersectionExampleScenario.node[86].veinsmobility  acceleration  ETV
vector 40026  IntersectionExampleScenario.node[86].veinsmobility  co2emission  ETV
39935	2389677 8271 18188 23053 277 339 249 0.973 11.200708441096 603.58811971851 2688.163810663
39934	2397948 8122 18188 23053 277 339 249 -4.5 2.5 35.455564498901 407.21436189739
39933	2406070 8402 18157 23053 276.75 339 250 0 15.02499961853 2261.2343219183 30168.678014054
39932	2414472 8725 18126 23053 276.5 339 251 166.078125 483.14999389648 103881.4197998 45359476.467059
39931	2423197 8777 18126 23053 276.5 339 251 486.85000610352 734.97520446777 130897.4906311 69398012.78915
vector 40029  IntersectionExampleScenario.node[87].veinsmobility  posx  ETV
vector 40030  IntersectionExampleScenario.node[87].veinsmobility  posy  ETV
39942	2432128 8177 18342 23137 278.25 340 248 0.973 11.54047740176 626.19162742377 2861.2292897632
39941	2440305 8165 18342 23137 278.25 340 248 -4.5 2.5000009536743 37.492597579956 425.44162155343
39940	2448470 8524 18311 23137 278 340 249 0 15.5 2341.9166330192 31380.693901333
39939	2456994 8722 18280 23137 277.75 340 250 153.85467529297 734.86460876465 110157.48526001 53501971.433964
39938	2465716 8749 18280 23137 277.75 340 250 486.85000610352 486.85000610352 121712.50152588 59255732.110748
vector 40031  IntersectionExampleScenario.node[87].veinsmobility  speed  ETV
vector 40032  IntersectionExampleScenario.node[87].veinsmobility  acceleration  ETV
vector 40033  IntersectionExampleScenario.node[87].veinsmobility  co2emission  ETV
39949	2474712 7901 18718 23298 281.25 341.75 243 0.973 11.90022389248 638.4087653689 3179.862133088
39948	2482613 7962 18718 23298 281.25 341.75 243 -4.5 2.5 40.208654403687 424.3235353773
39947	2490575 8240 18685 23298 281 341.75 244 0 16 2325.6913794577 31049.265460263
39946	2498815 8536 18652 23298 280.75 341.75 245 156.24139404297 486.87805175781 99014.765258789 42379900.248631
39945	2507351 8571 18652 23298 280.75 341.75 245 235.83740234375 486.85003662109 111043.09057617 51428232.360039
vector 40036  IntersectionExampleScenario.node[88].veinsmobility  posx  ETV
vector 40037  IntersectionExampleScenario.node[88].veinsmobility  posy  ETV
vector 40038  IntersectionExampleScenario.node[88].veinsmobility  speed  ETV
vector 40039  IntersectionExampleScenario.node[88].veinsmobility  acceleration  ETV
vector 40040  IntersectionExampleScenario.node[88].veinsmobility  co2emission  ETV
vector 40043  IntersectionExampleScenario.node[89].veinsmobility  posx  ETV
vector 40044  IntersectionExampleScenario.node[89].veinsmobility  posy  ETV
vector 40045  IntersectionExampleScenario.node[89].veinsmobility  speed  ETV
vector 40046  IntersectionExampleScenario.node[89].veinsmobility  acceleration  ETV
vector 40047  IntersectionExampleScenario.node[89].veinsmobility  co2emission  ETV
vector 40050  IntersectionExampleScenario.node[90].veinsmobility  posx  ETV
vector 40051  IntersectionExampleScenario.node[90].veinsmobility  posy  ETV
vector 40052  IntersectionExampleScenario.node[90].veinsmobility  speed  ETV
vector 40053  IntersectionExampleScenario.node[90].veinsmobility  acceleration  ETV
vector 40054  IntersectionExampleScenario.node[90].veinsmobility  co2emission  ETV
vector 40057  IntersectionExampleScenario.node[91].veinsmobility  posx  ETV
vector 40058  IntersectionExampleScenario.node[91].veinsmobility  posy  ETV
vector 40059  IntersectionExampleScenario.node[91].veinsmobility  speed  ETV
vector 40060  IntersectionExampleScenario.node[91].veinsmobility  acceleration  ETV
vector 40061  IntersectionExampleScenario.node[91].veinsmobility  co2emission  ETV
vector 40064  IntersectionExampleScenario.node[92].veinsmobility  posx  ETV
vector 40065  IntersectionExampleScenario.node[92].veinsmobility  posy  ETV
vector 40066  IntersectionExampleScenario.node[92].veinsmobility  speed  ETV
vector 40067  IntersectionExampleScenario.node[92].veinsmobility  acceleration  ETV
vector 40068  IntersectionExampleScenario.node[92].veinsmobility  co2emission  ETV
vector 40071  IntersectionExampleScenario.node[93].veinsmobility  posx  ETV
vector 40072  IntersectionExampleScenario.node[93].veinsmobility  posy  ETV
vector 40073  IntersectionExampleScenario.node[93].veinsmobility  speed  ETV
vector 40078  IntersectionExampleScenario.node[94].veinsmobility  posx  ETV
vector 40079  IntersectionExampleScenario.node[94].veinsmobility  posy  ETV
vector 40074  IntersectionExampleScenario.node[93].veinsmobility  acceleration  ETV
vector 40075  IntersectionExampleScenario.node[93].veinsmobility  co2emission  ETV
vector 40080  IntersectionExampleScenario.node[94].veinsmobility  speed  ETV
vector 40081  IntersectionExampleScenario.node[94].veinsmobility  acceleration  ETV
vector 40082  IntersectionExampleScenario.node[94].veinsmobility  co2emission  ETV
39963	2518729 6374 21366 25328 309.5 358.75 198 0.973 11.90022389248 580.4157418753 3080.9618109248
39962	2525103 5835 21366 25328 309.5 358.75 198 -6.9388580322266 4 39.869146347046 483.42859174969
39961	2530938 6184 21352 25328 309.25 358.75 199 0 16 2191.2483115196 31583.956053731
[...]
vector 42662  IntersectionExampleScenario.node[463].veinsmobility  posy  ETV
vector 42656  IntersectionExampleScenario.node[462].veinsmobility  speed  ETV
vector 42663  IntersectionExampleScenario.node[463].veinsmobility  speed  ETV
vector 42657  IntersectionExampleScenario.node[462].veinsmobility  acceleration  ETV
vector 42658  IntersectionExampleScenario.node[462].veinsmobility  co2emission  ETV
vector 42664  IntersectionExampleScenario.node[463].veinsmobility  acceleration  ETV
vector 42665  IntersectionExampleScenario.node[463].veinsmobility  co2emission  ETV
42574	15266314 7771 125911 130484 1695.5 1752.75 230 0.973 11.810082123732 597.48164312317 3086.7473541408
42573	15274085 8021 125911 130484 1695.5 1752.75 230 -3.9195666313171 2.5 38.850629806519 348.9370603219
42572	15282106 8214 125887 130484 1695.25 1752.75 231 0 15.875 2192.8661774062 28412.628141784
42571	15290320 8576 125862 130484 1695 1752.75 232 486.85000610352 735.18098449707 121194.81375122 64379632.798505
42570	15298896 8567 125862 130484 1695 1752.75 232 486.85000610352 785.82187652588 129369.94152069 74025871.455197
vector 42668  IntersectionExampleScenario.node[464].veinsmobility  posx  ETV
vector 42669  IntersectionExampleScenario.node[464].veinsmobility  posy  ETV
vector 42670  IntersectionExampleScenario.node[464].veinsmobility  speed  ETV
42581	15307698 6886 126499 130546 1702.75 1753.75 205 0.973 11.648172402475 572.31857822893 2989.1711578548
42580	15314584 7161 126499 130546 1702.75 1753.75 205 -2.8963661193848 2.5 41.396924972534 311.54581548341
42579	15321745 7332 126474 130546 1702.5 1753.75 206 1.594566822052 16.113430023193 2206.3441841602 29241.003901063
42578	15329077 7658 126453 130546 1702.25 1753.75 207 237.27685546875 486.85000610352 92766.247650146 42591962.57813
42577	15336735 7652 126453 130546 1702.25 1753.75 207 482.93099975586 785.82187652588 116657.28810883 67555685.943425
vector 42671  IntersectionExampleScenario.node[464].veinsmobility  acceleration  ETV
vector 42672  IntersectionExampleScenario.node[464].veinsmobility  co2emission  ETV
42609	15344558 6274 127223 130715 1710.75 1756.5 184 0.973 11.200708441096 508.49596838693 2574.1023263412
42608	15350832 6214 127223 130715 1710.75 1756.5 184 -2.6668510437012 2.5 36.813589096069 257.45342160012
42607	15357046 6622 127200 130715 1710.5 1756.5 185 3.8622381687164 15.02499961853 2213.4787828922 28807.335124685
42606	15363668 6883 127177 130715 1710.25 1756.5 186 486.85000610352 486.85000610352 90554.101135254 44086264.690397
42605	15370551 6863 127177 130715 1710.25 1756.5 186 237.62298583984 785.82187652588 97520.253471375 55359303.963145
42588	15377414 7536 126499 130845 1702.75 1759 226 0.973 11.810082123732 604.95749147058 3080.4760750216
42587	15384950 6951 126499 130845 1702.75 1759 226 -7.2641463279724 4 39.699392318726 483.29100888435
42586	15391901 7222 126474 130845 1702.5 1759 227 0 15.875 2180.8751922846 31208.170008883
42585	15399123 8370 126453 130845 1702.25 1759 228 236.12365722656 483.14999389648 102095.33773804 46754749.394639
42584	15407493 8408 126453 130845 1702.25 1759 228 184.17810058594 483.36395263672 95672.467315674 42133905.343353
vector 42675  IntersectionExampleScenario.node[465].veinsmobility  posx  ETV
vector 42676  IntersectionExampleScenario.node[465].veinsmobility  posy  ETV
vector 42677  IntersectionExampleScenario.node[465].veinsmobility  speed  ETV
vector 42678  IntersectionExampleScenario.node[465].veinsmobility  acceleration  ETV
vector 42679  IntersectionExampleScenario.node[465].veinsmobility  co2emission  ETV
42602	15416307 8312 126524 130992 1703 1761.75 236 0.973 11.810082123732 617.22143789883 2993.8233315928
42601	15424619 8220 126524 130992 1703 1761.75 236 -4.5 2.5 38.511121749878 443.88959436725
42600	15432839 8364 126499 130992 1702.75 1761.75 237 0 15.875 2287.2147869896 31689.833030669
42599	15441203 8785 126474 130992 1702.5 1761.75 238 235.38916015625 483.14999389648 106736.18832397 48941418.700072
42598	15449988 8762 126474 130992 1702.5 1761.75 238 159.76721191406 483.14999389648 97317.270599365 42265803.29319
vector 42682  IntersectionExampleScenario.node[466].veinsmobility  posx  ETV
vector 42683  IntersectionExampleScenario.node[466].veinsmobility  posy  ETV
vector 42684  IntersectionExampleScenario.node[466].veinsmobility  speed  ETV
42623	15458985 6367 127873 131084 1717.25 1763.25 185 0.973 12.099024792222 564.90641489575 3147.8778032095
42622	15465352 6360 127873 131084 1717.25 1763.25 185 -2.7021293640137 2.5 41.227170944214 321.50706645434
42621	15471712 6548 127846 131084 1717 1763.25 186 2.9529986381531 16.27499961853 2180.4787151814 29550.220548406
42620	15478260 6894 127819 131084 1716.75 1763.25 187 238.31317138672 483.14999389648 82589.732879639 37413451.897653
42619	15485154 6883 127819 131084 1716.75 1763.25 187 184.17810058594 483.24594116211 75507.885742188 32248453.768781
vector 42685  IntersectionExampleScenario.node[466].veinsmobility  acceleration  ETV
vector 42686  IntersectionExampleScenario.node[466].veinsmobility  co2emission  ETV
vector 42689  IntersectionExampleScenario.node[467].veinsmobility  posx  ETV
vector 42690  IntersectionExampleScenario.node[467].veinsmobility  posy  ETV
vector 42691  IntersectionExampleScenario.node[467].veinsmobility  speed  ETV
vector 42692  IntersectionExampleScenario.node[467].veinsmobility  acceleration  ETV
vector 42693  IntersectionExampleScenario.node[467].veinsmobility  co2emission  ETV
vector 42696  IntersectionExampleScenario.node[468].veinsmobility  posx  ETV
vector 42697  IntersectionExampleScenario.node[468].veinsmobility  posy  ETV
vector 42698  IntersectionExampleScenario.node[468].veinsmobility  speed  ETV
vector 42699  IntersectionExampleScenario.node[468].veinsmobility  acceleration  ETV
vector 42700  IntersectionExampleScenario.node[468].veinsmobility  co2emission  ETV
42616	15493020 7659 127319 131557 1711.75 1769.5 232 0.973 12.353032912318 637.31435822159 3423.650776093
42615	15500679 6976 127319 131557 1711.75 1769.5 232 -7.618905544281 4 42.415441513062 528.41789910648
42614	15507655 7296 127294 131557 1711.5 1769.5 233 0 16.625 2207.5550447702 32961.907185255
42613	15514951 8626 127269 131557 1711.25 1769.5 234 184.17810058594 486.85000610352 99036.450927734 43927307.246485
42612	15523577 8657 127269 131557 1711.25 1769.5 234 235.60009765625 486.85000610352 105941.93579102 49026472.736245
42630	15532234 6426 128710 131761 1726.5 1772.75 186 0.973 11.450879080643 530.95562494389 2683.0697770734
42629	15538660 6563 128710 131761 1726.5 1772.75 186 -2.1354446411133 2.5 37.15309715271 271.80343052258
42628	15545223 6718 128689 131761 1726.25 1772.75 187 2.9628820419312 15.375 2200.0663938522 28922.414338967
42627	15551941 6930 128668 131761 1726 1772.75 188 184.17810058594 487.05099487305 76042.345855713 32605584.772287
42626	15558871 6946 128668 131761 1726 1772.75 188 238.40563964844 486.85000610352 83073.597290039 37729200.087883
vector 42703  IntersectionExampleScenario.node[469].veinsmobility  posx  ETV
vector 42704  IntersectionExampleScenario.node[469].veinsmobility  posy  ETV
vector 42710  IntersectionExampleScenario.node[470].veinsmobility  posx  ETV
vector 42711  IntersectionExampleScenario.node[470].veinsmobility  posy  ETV
vector 42705  IntersectionExampleScenario.node[469].veinsmobility  speed  ETV
vector 42712  IntersectionExampleScenario.node[470].veinsmobility  speed  ETV
vector 42706  IntersectionExampleScenario.node[469].veinsmobility  acceleration  ETV
vector 42707  IntersectionExampleScenario.node[469].veinsmobility  co2emission  ETV
vector 42713  IntersectionExampleScenario.node[470].veinsmobility  acceleration  ETV
vector 42714  IntersectionExampleScenario.node[470].veinsmobility  co2emission  ETV
vector 42717  IntersectionExampleScenario.node[471].veinsmobility  posx  ETV
vector 42718  IntersectionExampleScenario.node[471].veinsmobility  posy  ETV
vector 42724  IntersectionExampleScenario.node[472].veinsmobility  posx  ETV
vector 42725  IntersectionExampleScenario.node[472].veinsmobility  posy  ETV
vector 42719  IntersectionExampleScenario.node[471].veinsmobility  speed  ETV
vector 42720  IntersectionExampleScenario.node[471].veinsmobility  acceleration  ETV
vector 42721  IntersectionExampleScenario.node[471].veinsmobility  co2emission  ETV
vector 42726  IntersectionExampleScenario.node[472].veinsmobility  speed  ETV
vector 42727  IntersectionExampleScenario.node[472].veinsmobility  acceleration  ETV
vector 42728  IntersectionExampleScenario.node[472].veinsmobility  co2emission  ETV
42637	15567441 7182 129092 132526 1731 1783.5 211 0.973 11.36141391502 571.21976604097 2793.0176949632
42636	15574623 6552 129092 132526 1731 1783.5 211 -7.3439340591431 4 37.32285118103 466.2801642023
42635	15581175 6936 129069 132526 1730.75 1783.5 212 0 15.25 2179.0751368999 30203.864518701
42634	15588111 7817 129046 132526 1730.5 1783.5 213 486.85000610352 733.68672180176 112049.8755188 59987809.306267
42633	15595928 7870 129046 132526 1730.5 1783.5 213 486.63604736328 785.82187652588 118288.34304047 67655144.696465
42644	15603798 6609 129547 132564 1736.5 1784 191 0.973 11.990504229548 564.10900050138 2971.86168686
42643	15610407 6753 129547 132564 1736.5 1784 191 -3.7590627670288 2.5 39.699392318726 376.96111858833
42642	15617160 6937 129528 132564 1736.25 1784 192 0 16.125 2216.7839817405 31144.085717177
42641	15624097 7139 129508 132564 1736 1784 193 486.85000610352 486.85000610352 93962.051177979 45745425.189498
42640	15631236 7129 129508 132564 1736 1784 193 236.41180419922 785.82187652588 100315.21395111 56239116.109467
42651	15638365 6119 129983 132756 1743 1786.75 176 0.973 11.448965728411 523.75381463715 2724.0270149318
42650	15644484 6158 129983 132756 1743 1786.75 176 -2.1540374755859 2.5 36.98334312439 261.39947646676
42649	15650642 6385 129968 132756 1742.75 1786.75 177 5.3242835998535 15.49415397644 2211.4580416679 29335.150218436
42648	15657027 6587 129952 132756 1742.5 1786.75 178 486.85000610352 486.85000610352 86659.301086426 42190081.262853
42647	15663614 6574 129952 132756 1742.5 1786.75 178 237.96643066406 785.82187652588 93239.464653015 53040915.465671
vector 42731  IntersectionExampleScenario.node[473].veinsmobility  posx  ETV
vector 42732  IntersectionExampleScenario.node[473].veinsmobility  posy  ETV
vector 42733  IntersectionExampleScenario.node[473].veinsmobility  speed  ETV
vector 42734  IntersectionExampleScenario.node[473].veinsmobility  acceleration  ETV
vector 42735  IntersectionExampleScenario.node[473].veinsmobility  co2emission  ETV
42665	15670594 6003 130439 133148 1752 1794 169 0.973 11.648172402475 538.28085801418 2896.1403350886
42664	15676597 5658 130439 133148 1752 1794 169 -7.4922709465027 4 38.171613693237 481.23647987725
42663	15682255 5956 130424 133148 1751.75 1794 170 0 15.64999961853 2182.438724637 30768.03517872
42662	15688211 6316 130409 133148 1751.5 1794 171 483.14999389648 733.1785736084 91043.292877197 49462480.430217
42661	15694527 6297 130409 133148 1751.5 1794 171 184.17810058594 486.85000610352 68871.220062256 29565305.924765
vector 42738  IntersectionExampleScenario.node[474].veinsmobility  posx  ETV
vector 42739  IntersectionExampleScenario.node[474].veinsmobility  posy  ETV
vector 42745  IntersectionExampleScenario.node[475].veinsmobility  posx  ETV
vector 42746  IntersectionExampleScenario.node[475].veinsmobility  posy  ETV
vector 42740  IntersectionExampleScenario.node[474].veinsmobility  speed  ETV
vector 42747  IntersectionExampleScenario.node[475].veinsmobility  speed  ETV
vector 42741  IntersectionExampleScenario.node[474].veinsmobility  acceleration  ETV
vector 42742  IntersectionExampleScenario.node[474].veinsmobility  co2emission  ETV
vector 42748  IntersectionExampleScenario.node[475].veinsmobility  acceleration  ETV
vector 42749  IntersectionExampleScenario.node[475].veinsmobility  co2emission  ETV
42672	15701636 6021 130563 133260 1754 1796 169 0.973 11.648172402475 554.85213442516 2957.5271355147
42671	15707657 5580 130563 133260 1754 1796 169 -4.5 2.5 41.057416915894 363.87112273684
42670	15713237 6075 130546 133260 1753.75 1796 170 4.3887147903442 15.930704116821 2279.3548107147 32921.284326972
42669	15719312 6317 130529 133260 1753.5 1796 171 483.14999389648 732.85577392578 90683.10697937 49048140.847233
42668	15725629 6288 130529 133260 1753.5 1796 171 166.078125 487.01202392578 67567.551574707 28766102.325286
vector 42752  IntersectionExampleScenario.node[476].veinsmobility  posx  ETV
vector 42753  IntersectionExampleScenario.node[476].veinsmobility  posy  ETV
vector 42754  IntersectionExampleScenario.node[476].veinsmobility  speed  ETV
vector 42755  IntersectionExampleScenario.node[476].veinsmobility  acceleration  ETV
vector 42756  IntersectionExampleScenario.node[476].veinsmobility  co2emission  ETV
42658	15732323 6411 130439 133526 1752 1800 193 0.973 12.099024792222 553.30754024692 3096.5818684519
42657	15738734 6096 130439 133526 1752 1800 193 -7.8776445388794 4 40.03900718689 507.63008712892
42656	15744830 6162 130424 133526 1751.75 1800 194 0 16.27499961853 1871.287758112 26573.795568819
42655	15750992 7198 130409 133526 1751.5 1800 195 486.63604736328 785.82187652588 109188.16175079 62986674.65839
42654	15758190 7147 130409 133526 1751.5 1800 195 313.43084716797 483.14999389648 90344.1065979 42212627.678013
42679	15765337 5539 130992 133526 1761.75 1800 154 0.973 11.253563674618 466.70181733795 2436.6909500599
42678	15770876 5266 130992 133526 1761.75 1800 154 -3.6749267578125 2.5 36.813589096069 199.53298740366
42677	15776142 5517 130977 133526 1761.5 1800 155 5.6500000953674 15.099066734314 2163.6539344788 30744.966710194
42676	15781659 5772 130962 133526 1761.25 1800 156 483.14999389648 483.14999389648 75371.399047852 36415690.989939
42675	15787431 5746 130962 133526 1761.25 1800 156 184.17810058594 720.02587890625 69023.720245361 34475843.055402
42686	15793177 5353 131101 133526 1763.5 1800 147 0.973 11.200708441096 444.14280323046 2197.8975023184
42685	15798530 4886 131101 133526 1763.5 1800 147 -4.5 2.5 37.32285118103 186.04726176456
42684	15803416 5262 131084 133526 1763.25 1800 148 5.6500000953674 15.02499961853 2070.9231548309 29540.501646968
42683	15808678 5511 131067 133526 1763 1800 149 483.14999389648 483.14999389648 71989.349090576 34781653.573724
42682	15814189 5487 131067 133526 1763 1800 149 164.94219970703 677.48585510254 61493.572174072 28836061.628445
42693	15819676 5154 131156 133526 1764.25 1800 144 0.973 11.200708441096 470.37436535047 2522.5381123774
42692	15824830 4873 131156 133526 1764.25 1800 144 -4.5 2.5 37.493398666382 336.80911615652
42691	15829703 5345 131137 133526 1764 1800 145 3.3674700260162 15.291080474854 1782.9604432583 24118.544031597
42690	15835048 5375 131118 133526 1763.75 1800 146 184.17810058594 486.85000610352 56629.518829346 23594296.005633
42689	15840423 5400 131118 133526 1763.75 1800 146 341.72540283203 486.85000610352 68073.248840332 31961679.377309
42700	15845823 4440 131274 133526 1765.75 1800 138 0.96333723109819 12.099024792222 337.26130685936 1705.5141219312
42699	15850263 4280 131274 133526 1765.75 1800 138 -6.7176246643066 4 -1.1000003814697 378.81430877241
42698	15854543 4421 131253 133526 1765.5 1800 139 0 16.27499961853 1173.1356482506 16557.763803057
42697	15858964 5179 131232 133526 1765.25 1800 140 486.85000610352 488.3235168457 68162.397460938 33186520.762
42696	15864143 5163 131232 133526 1765.25 1800 140 493.81311035156 785.82187652588 82355.475090027 49893092.629994
42707	15869306 3491 131814 133526 1773.5 1800 107 0.973 11.200708441096 275.9304858254 1378.7271296289
42706	15872797 3905 131814 133526 1773.5 1800 107 -2.0566711425781 2.5 1.6123142242432 194.54466685354
42705	15876702 3982 131795 133526 1773.25 1800 108 2.4338881969452 15.02499961853 1122.7844529152 13905.47678469
42704	15880684 4031 131776 133526 1773 1800 109 486.85000610352 486.85000610352 53066.650665283 25835499.200286
42703	15884715 4018 131776 133526 1773 1800 109 507.01052856445 785.82187652588 68063.695533752 43450205.041192
42714	15888733 3808 131814 133526 1773.5 1800 107 0.973 11.200708441096 375.62821855695 2245.7682499684
42713	15892541 3343 131814 133526 1773.5 1800 107 -3.4963760375977 2.5 35.89999961853 259.92753585035
42712	15895884 3694 131795 133526 1773.25 1800 108 5.6500000953674 15.02499961853 1362.405134201 18234.695623506
42711	15899578 4010 131776 133526 1773 1800 109 184.17810058594 483.14999389648 38651.893341064 14864702.290291
42710	15903588 4031 131776 133526 1773 1800 109 486.85000610352 528.18685913086 53414.571533203 26183302.931607
42721	15907619 2617 132450 133526 1782.5 1800 71 1.6778656626784 11.200708441096 240.28193764434 1300.8827732589
42720	15910236 2357 132450 133526 1782.5 1800 71 -0.12916564941406 2.5 36.98334312439 93.788124843824
42719	15912593 2649 132431 133526 1782.25 1800 72 5.6500000953674 15.02499961853 999.95422267914 14279.810053379
42718	15915242 2694 132414 133526 1782 1800 73 540.79806518555 785.82187652588 49131.370613098 33486040.650918
42717	15917936 2699 132414 133526 1782 1800 73 483.14999389648 483.14999389648 35269.949554443 17040675.911959
42728	15920635 2434 132469 133526 1782.75 1800 70 0.973 11.648172402475 257.32408600228 1634.5449356623
42727	15923069 2382 132469 133526 1782.75 1800 70 -2.2210502624512 2.5 26.140691757202 161.57406799763
42726	15925451 2609 132450 133526 1782.5 1800 71 5.6500000953674 15.64999961853 932.2850894928 12756.881386041
42725	15928060 2664 132431 133526 1782.25 1800 72 486.85000610352 486.85000610352 35053.200439453 17065650.847895
42724	15930724 2659 132431 133526 1782.25 1800 72 556.68353271484 785.82187652588 48552.641777039 33131117.734133
42735	15933383 1240 133031 133526 1791.75 1800 34 0.973 12.099024792222 179.28061744008 1401.3906320658
42734	15934623 1113 133031 133526 1791.75 1800 34 -0.36064910888672 2.5 41.068250656128 106.54726943531
42733	15935736 1282 133018 133526 1791.5 1800 35 5.6500000953674 16.27499961853 468.94279098511 6692.3104538053
42732	15937018 1332 133005 133526 1791.25 1800 36 486.85000610352 486.85000610352 17526.600219727 8532825.4239478
42731	15938350 1330 133005 133526 1791.25 1800 36 673.86866760254 785.82187652588 26596.982719421 19695274.18169
42742	15939680 624 133260 133526 1796 1800 17 1.5237915469079 11.200708441096 125.80229507115 1058.3050671839
42741	15940304 463 133260 133526 1796 1800 17 -0.17160415649414 2.5 37.199689865112 93.79600318769
42740	15940767 656 133243 133526 1795.75 1800 18 5.6500000953674 15.02499961853 195.33201694489 2290.5983613814
42739	15941423 702 133226 133526 1795.5 1800 19 486.85000610352 486.85000610352 9250.1501159668 4503435.6404169
42738	15942125 701 133226 133526 1795.5 1800 19 746.33193969727 790.18281555176 14681.89781189 11348780.661247
42749	15942826 624 133260 133526 1796 1800 17 5.2162187258585 12.099024792222 146.34956186807 1335.2400062987
42748	15943450 435 133260 133526 1796 1800 17 2.4999980926514 2.5 42.499998092651 106.24999046326
42747	15943885 654 133243 133526 1795.75 1800 18 5.6500000953674 16.27499961853 197.32499504089 2352.4329995823
42746	15944539 702 133226 133526 1795.5 1800 19 483.14999389648 483.14999389648 9179.8498840332 4435244.4154413
42745	15945241 685 133226 133526 1795.5 1800 19 184.17810058594 228.11248779297 3831.0435791016 776088.84238244
42756	15945926 294 133406 133526 1798.25 1800 8 5.2162187258585 8.1519697732254 53.421447184847 364.11653726105
42755	15946220 212 133406 133526 1798.25 1800 8 2.4999980926514 2.5 19.999998092651 49.99999046326
42754	15946432 329 133389 133526 1798 1800 9 5.6500000953674 10.64999961853 73.349998474121 621.23996916771
42753	15946761 369 133372 133526 1797.75 1800 10 486.85000610352 486.85000610352 4868.5000610352 2370229.2844299
42752	15947130 368 133372 133526 1797.75 1800 10 789.8383026123 804.88829040527 7987.7204589844 6380623.6036608
39416	15947498 627 0 133525 0 1800 31 0 21 395 5487
39417	15948125 640 0 133525 0 1800 31 0 157 2384 252146
