version 2
run nodebug-40-20200606-17:51:21-10964
attr configname nodebug
attr datetime 20200606-17:51:21
attr experiment nodebug
attr inifile omnetpp.ini
attr iterationvars ""
attr iterationvars2 $repetition=40
attr measurement ""
attr network "\"org.car2x.veins.modules.application.ExtTraCIScenarioManagerLaunchd.IntersectionExampleScenario\""
attr processid 10964
attr repetition 40
attr replication #40
attr resultdir results
attr runnumber 40
attr seedset 40
param **.coreDebug false
param **.debug false
param *.**.nic.mac1609_4.bitrate 18Mbps
param *.**.nic.mac1609_4.txPower 20mW
param *.**.nic.mac1609_4.useServiceChannel false
param *.**.nic.phy80211p.analogueModels "xmldoc(\"config.xml\")"
param *.**.nic.phy80211p.decider "xmldoc(\"config.xml\")"
param *.**.nic.phy80211p.sensitivity -89dBm
param *.**.nic.phy80211p.thermalNoise -110dBm
param *.**.nic.phy80211p.usePropagationDelay true
param *.**.nic.phy80211p.useThermalNoise true
param *.annotations.draw false
param *.connectionManager.alpha 2.0
param *.connectionManager.carrierFrequency "5.890e9 Hz"
param *.connectionManager.pMax 20mW
param *.connectionManager.sat -89dBm
param *.connectionManager.sendDirect true
param *.manager.autoShutdown true
param *.manager.host "\"localhost\""
param *.manager.launchConfig "xmldoc(\"paramics.launchd.xml\")"
param *.manager.margin 25
param *.manager.moduleDisplayString "\"\""
param *.manager.moduleName "\"node\""
param *.manager.moduleType "\"org.car2x.veins.nodes.Car\""
param *.manager.port 9999
param *.manager.updateInterval 250ms
param *.node[*0].veinsmobility.accidentCount 0
param *.node[*0].veinsmobility.accidentDuration 30s
param *.node[*0].veinsmobility.accidentStart 75s
param *.node[*].appl.LiderSelectZoneRadio 55.0
param *.node[*].appl.ShareDataZoneRadio 110.0
param *.node[*].appl.TiempoSemaforo 30.0
param *.node[*].appl.beaconInterval 1s
param *.node[*].appl.beaconPriority 3
param *.node[*].appl.dataOnSch false
param *.node[*].appl.dataPriority 2
param *.node[*].appl.debug false
param *.node[*].appl.headerLength "256 bit"
param *.node[*].appl.maxOffset 0.005s
param *.node[*].appl.sendBeacons false
param *.node[*].appl.sendData true
param *.node[*].applType "\"Dummy\""
param *.node[*].mobilityType "\"TraCIMobility\""
param *.node[*].mobilityType.debug true
param *.node[*].veinsmobility.x 0
param *.node[*].veinsmobility.y 0
param *.node[*].veinsmobility.z 1.895
param *.node[*].veinsmobilityType "\"org.car2x.veins.modules.mobility.traci.TraCIMobility\""
param *.node[*].veinsmobilityType.debug true
param *.playgroundSizeX 8500m
param *.playgroundSizeY 8500m
param *.playgroundSizeZ 50m
param *.world.use2D false
param *.world.useTorus false

scalar IntersectionExampleScenario.node[1].appl 	VehicleRemoved 	0
scalar IntersectionExampleScenario.node[1].appl 	ArrivedAtDest 	1
scalar IntersectionExampleScenario.node[1].appl 	IntersectionEnterTime 	7
scalar IntersectionExampleScenario.node[1].appl 	IntersectionExitTime 	30.827976526431
scalar IntersectionExampleScenario.node[1].appl 	NumberOfCollisions 	0
scalar IntersectionExampleScenario.node[1].nic.phy80211p 	busyTime 	0
scalar IntersectionExampleScenario.node[1].nic.mac1609_4 	ReceivedUnicastPackets 	0
scalar IntersectionExampleScenario.node[1].nic.mac1609_4 	ReceivedBroadcasts 	0
scalar IntersectionExampleScenario.node[1].nic.mac1609_4 	SentPackets 	0
scalar IntersectionExampleScenario.node[1].nic.mac1609_4 	SNIRLostPackets 	0
scalar IntersectionExampleScenario.node[1].nic.mac1609_4 	RXTXLostPackets 	0
scalar IntersectionExampleScenario.node[1].nic.mac1609_4 	TotalLostPackets 	0
scalar IntersectionExampleScenario.node[1].nic.mac1609_4 	DroppedPacketsInMac 	0
scalar IntersectionExampleScenario.node[1].nic.mac1609_4 	TooLittleTime 	0
scalar IntersectionExampleScenario.node[1].nic.mac1609_4 	TimesIntoBackoff 	0
scalar IntersectionExampleScenario.node[1].nic.mac1609_4 	SlotsBackoff 	0
scalar IntersectionExampleScenario.node[1].nic.mac1609_4 	NumInternalContention 	0
scalar IntersectionExampleScenario.node[1].nic.mac1609_4 	totalBusyTime 	0
scalar IntersectionExampleScenario.node[1].veinsmobility 	startTime 	7
scalar IntersectionExampleScenario.node[1].veinsmobility 	totalTime 	40.75
scalar IntersectionExampleScenario.node[1].veinsmobility 	stopTime 	48
scalar IntersectionExampleScenario.node[1].veinsmobility 	minSpeed 	5.6500000953674
scalar IntersectionExampleScenario.node[1].veinsmobility 	maxSpeed 	15.02499961853
scalar IntersectionExampleScenario.node[1].veinsmobility 	totalDistance 	550.90992376574
scalar IntersectionExampleScenario.node[1].veinsmobility 	totalCO2Emission 	119.02187878506
scalar IntersectionExampleScenario.node[2].appl 	VehicleRemoved 	0
scalar IntersectionExampleScenario.node[2].appl 	ArrivedAtDest 	1
scalar IntersectionExampleScenario.node[2].appl 	IntersectionEnterTime 	10.5
scalar IntersectionExampleScenario.node[2].appl 	IntersectionExitTime 	39.325102011004
scalar IntersectionExampleScenario.node[2].appl 	NumberOfCollisions 	0
scalar IntersectionExampleScenario.node[2].nic.phy80211p 	busyTime 	0
scalar IntersectionExampleScenario.node[2].nic.mac1609_4 	ReceivedUnicastPackets 	0
scalar IntersectionExampleScenario.node[2].nic.mac1609_4 	ReceivedBroadcasts 	0
scalar IntersectionExampleScenario.node[2].nic.mac1609_4 	SentPackets 	0
scalar IntersectionExampleScenario.node[2].nic.mac1609_4 	SNIRLostPackets 	0
scalar IntersectionExampleScenario.node[2].nic.mac1609_4 	RXTXLostPackets 	0
scalar IntersectionExampleScenario.node[2].nic.mac1609_4 	TotalLostPackets 	0
scalar IntersectionExampleScenario.node[2].nic.mac1609_4 	DroppedPacketsInMac 	0
scalar IntersectionExampleScenario.node[2].nic.mac1609_4 	TooLittleTime 	0
scalar IntersectionExampleScenario.node[2].nic.mac1609_4 	TimesIntoBackoff 	0
scalar IntersectionExampleScenario.node[2].nic.mac1609_4 	SlotsBackoff 	0
scalar IntersectionExampleScenario.node[2].nic.mac1609_4 	NumInternalContention 	0
scalar IntersectionExampleScenario.node[2].nic.mac1609_4 	totalBusyTime 	0
scalar IntersectionExampleScenario.node[2].veinsmobility 	startTime 	10.5
scalar IntersectionExampleScenario.node[2].veinsmobility 	totalTime 	45
scalar IntersectionExampleScenario.node[2].veinsmobility 	stopTime 	55.75
scalar IntersectionExampleScenario.node[2].veinsmobility 	minSpeed 	0
scalar IntersectionExampleScenario.node[2].veinsmobility 	maxSpeed 	15.375
scalar IntersectionExampleScenario.node[2].veinsmobility 	totalDistance 	548.74363054385
scalar IntersectionExampleScenario.node[2].veinsmobility 	totalCO2Emission 	134.79502183564
scalar IntersectionExampleScenario.node[4].appl 	VehicleRemoved 	0
scalar IntersectionExampleScenario.node[4].appl 	ArrivedAtDest 	1
scalar IntersectionExampleScenario.node[4].appl 	IntersectionEnterTime 	15
scalar IntersectionExampleScenario.node[4].appl 	IntersectionExitTime 	41.52528102856
scalar IntersectionExampleScenario.node[4].appl 	NumberOfCollisions 	0
scalar IntersectionExampleScenario.node[4].nic.phy80211p 	busyTime 	0
scalar IntersectionExampleScenario.node[4].nic.mac1609_4 	ReceivedUnicastPackets 	0
scalar IntersectionExampleScenario.node[4].nic.mac1609_4 	ReceivedBroadcasts 	0
scalar IntersectionExampleScenario.node[4].nic.mac1609_4 	SentPackets 	0
scalar IntersectionExampleScenario.node[4].nic.mac1609_4 	SNIRLostPackets 	0
scalar IntersectionExampleScenario.node[4].nic.mac1609_4 	RXTXLostPackets 	0
scalar IntersectionExampleScenario.node[4].nic.mac1609_4 	TotalLostPackets 	0
scalar IntersectionExampleScenario.node[4].nic.mac1609_4 	DroppedPacketsInMac 	0
scalar IntersectionExampleScenario.node[4].nic.mac1609_4 	TooLittleTime 	0
scalar IntersectionExampleScenario.node[4].nic.mac1609_4 	TimesIntoBackoff 	0
scalar IntersectionExampleScenario.node[4].nic.mac1609_4 	SlotsBackoff 	0
scalar IntersectionExampleScenario.node[4].nic.mac1609_4 	NumInternalContention 	0
scalar IntersectionExampleScenario.node[4].nic.mac1609_4 	totalBusyTime 	0
scalar IntersectionExampleScenario.node[4].veinsmobility 	startTime 	15
scalar IntersectionExampleScenario.node[4].veinsmobility 	totalTime 	43
scalar IntersectionExampleScenario.node[4].veinsmobility 	stopTime 	58.25
scalar IntersectionExampleScenario.node[4].veinsmobility 	minSpeed 	0
scalar IntersectionExampleScenario.node[4].veinsmobility 	maxSpeed 	15.64999961853
scalar IntersectionExampleScenario.node[4].veinsmobility 	totalDistance 	544.78672174768
scalar IntersectionExampleScenario.node[4].veinsmobility 	totalCO2Emission 	138.42839489876
scalar IntersectionExampleScenario.node[5].appl 	VehicleRemoved 	0
scalar IntersectionExampleScenario.node[5].appl 	ArrivedAtDest 	1
scalar IntersectionExampleScenario.node[5].appl 	IntersectionEnterTime 	18.25
scalar IntersectionExampleScenario.node[5].appl 	IntersectionExitTime 	42.869674888963
scalar IntersectionExampleScenario.node[5].appl 	NumberOfCollisions 	0
scalar IntersectionExampleScenario.node[5].nic.phy80211p 	busyTime 	0
scalar IntersectionExampleScenario.node[5].nic.mac1609_4 	ReceivedUnicastPackets 	0
scalar IntersectionExampleScenario.node[5].nic.mac1609_4 	ReceivedBroadcasts 	0
scalar IntersectionExampleScenario.node[5].nic.mac1609_4 	SentPackets 	0
scalar IntersectionExampleScenario.node[5].nic.mac1609_4 	SNIRLostPackets 	0
scalar IntersectionExampleScenario.node[5].nic.mac1609_4 	RXTXLostPackets 	0
scalar IntersectionExampleScenario.node[5].nic.mac1609_4 	TotalLostPackets 	0
scalar IntersectionExampleScenario.node[5].nic.mac1609_4 	DroppedPacketsInMac 	0
scalar IntersectionExampleScenario.node[5].nic.mac1609_4 	TooLittleTime 	0
scalar IntersectionExampleScenario.node[5].nic.mac1609_4 	TimesIntoBackoff 	0
scalar IntersectionExampleScenario.node[5].nic.mac1609_4 	SlotsBackoff 	0
scalar IntersectionExampleScenario.node[5].nic.mac1609_4 	NumInternalContention 	0
scalar IntersectionExampleScenario.node[5].nic.mac1609_4 	totalBusyTime 	0
scalar IntersectionExampleScenario.node[5].veinsmobility 	startTime 	18.25
scalar IntersectionExampleScenario.node[5].veinsmobility 	totalTime 	40.75
scalar IntersectionExampleScenario.node[5].veinsmobility 	stopTime 	59.25
scalar IntersectionExampleScenario.node[5].veinsmobility 	minSpeed 	5.6500000953674
scalar IntersectionExampleScenario.node[5].veinsmobility 	maxSpeed 	15.64999961853
scalar IntersectionExampleScenario.node[5].veinsmobility 	totalDistance 	560.80970521103
scalar IntersectionExampleScenario.node[5].veinsmobility 	totalCO2Emission 	130.82416017285
scalar IntersectionExampleScenario.node[6].appl 	VehicleRemoved 	0
scalar IntersectionExampleScenario.node[6].appl 	ArrivedAtDest 	1
scalar IntersectionExampleScenario.node[6].appl 	IntersectionEnterTime 	20.75
scalar IntersectionExampleScenario.node[6].appl 	IntersectionExitTime 	44.354379336088
scalar IntersectionExampleScenario.node[6].appl 	NumberOfCollisions 	0
scalar IntersectionExampleScenario.node[6].nic.phy80211p 	busyTime 	0
scalar IntersectionExampleScenario.node[6].nic.mac1609_4 	ReceivedUnicastPackets 	0
scalar IntersectionExampleScenario.node[6].nic.mac1609_4 	ReceivedBroadcasts 	0
scalar IntersectionExampleScenario.node[6].nic.mac1609_4 	SentPackets 	0
scalar IntersectionExampleScenario.node[6].nic.mac1609_4 	SNIRLostPackets 	0
scalar IntersectionExampleScenario.node[6].nic.mac1609_4 	RXTXLostPackets 	0
scalar IntersectionExampleScenario.node[6].nic.mac1609_4 	TotalLostPackets 	0
scalar IntersectionExampleScenario.node[6].nic.mac1609_4 	DroppedPacketsInMac 	0
scalar IntersectionExampleScenario.node[6].nic.mac1609_4 	TooLittleTime 	0
scalar IntersectionExampleScenario.node[6].nic.mac1609_4 	TimesIntoBackoff 	0
scalar IntersectionExampleScenario.node[6].nic.mac1609_4 	SlotsBackoff 	0
scalar IntersectionExampleScenario.node[6].nic.mac1609_4 	NumInternalContention 	0
scalar IntersectionExampleScenario.node[6].nic.mac1609_4 	totalBusyTime 	0
scalar IntersectionExampleScenario.node[6].veinsmobility 	startTime 	20.75
scalar IntersectionExampleScenario.node[6].veinsmobility 	totalTime 	40.25
scalar IntersectionExampleScenario.node[6].veinsmobility 	stopTime 	61.25
scalar IntersectionExampleScenario.node[6].veinsmobility 	minSpeed 	5.6500000953674
scalar IntersectionExampleScenario.node[6].veinsmobility 	maxSpeed 	15.520453453064
scalar IntersectionExampleScenario.node[6].veinsmobility 	totalDistance 	551.99828907264
scalar IntersectionExampleScenario.node[6].veinsmobility 	totalCO2Emission 	128.25476018539
scalar IntersectionExampleScenario.node[0].appl 	VehicleRemoved 	0
scalar IntersectionExampleScenario.node[0].appl 	ArrivedAtDest 	1
scalar IntersectionExampleScenario.node[0].appl 	IntersectionEnterTime 	6.75
scalar IntersectionExampleScenario.node[0].appl 	IntersectionExitTime 	51.535913148487
scalar IntersectionExampleScenario.node[0].appl 	NumberOfCollisions 	0
scalar IntersectionExampleScenario.node[0].nic.phy80211p 	busyTime 	0
scalar IntersectionExampleScenario.node[0].nic.mac1609_4 	ReceivedUnicastPackets 	0
scalar IntersectionExampleScenario.node[0].nic.mac1609_4 	ReceivedBroadcasts 	0
scalar IntersectionExampleScenario.node[0].nic.mac1609_4 	SentPackets 	0
scalar IntersectionExampleScenario.node[0].nic.mac1609_4 	SNIRLostPackets 	0
scalar IntersectionExampleScenario.node[0].nic.mac1609_4 	RXTXLostPackets 	0
scalar IntersectionExampleScenario.node[0].nic.mac1609_4 	TotalLostPackets 	0
scalar IntersectionExampleScenario.node[0].nic.mac1609_4 	DroppedPacketsInMac 	0
scalar IntersectionExampleScenario.node[0].nic.mac1609_4 	TooLittleTime 	0
scalar IntersectionExampleScenario.node[0].nic.mac1609_4 	TimesIntoBackoff 	0
scalar IntersectionExampleScenario.node[0].nic.mac1609_4 	SlotsBackoff 	0
scalar IntersectionExampleScenario.node[0].nic.mac1609_4 	NumInternalContention 	0
scalar IntersectionExampleScenario.node[0].nic.mac1609_4 	totalBusyTime 	0
scalar IntersectionExampleScenario.node[0].veinsmobility 	startTime 	6.75
scalar IntersectionExampleScenario.node[0].veinsmobility 	totalTime 	61.5
scalar IntersectionExampleScenario.node[0].veinsmobility 	stopTime 	68.5
scalar IntersectionExampleScenario.node[0].veinsmobility 	minSpeed 	0
scalar IntersectionExampleScenario.node[0].veinsmobility 	maxSpeed 	15.875
scalar IntersectionExampleScenario.node[0].veinsmobility 	totalDistance 	545.6419363156
scalar IntersectionExampleScenario.node[0].veinsmobility 	totalCO2Emission 	153.79699830857
scalar IntersectionExampleScenario.node[3].appl 	VehicleRemoved 	0
scalar IntersectionExampleScenario.node[3].appl 	ArrivedAtDest 	1
scalar IntersectionExampleScenario.node[3].appl 	IntersectionEnterTime 	10.75
scalar IntersectionExampleScenario.node[3].appl 	IntersectionExitTime 	53.363033402013
scalar IntersectionExampleScenario.node[3].appl 	NumberOfCollisions 	0
scalar IntersectionExampleScenario.node[3].nic.phy80211p 	busyTime 	0
scalar IntersectionExampleScenario.node[3].nic.mac1609_4 	ReceivedUnicastPackets 	0
scalar IntersectionExampleScenario.node[3].nic.mac1609_4 	ReceivedBroadcasts 	0
scalar IntersectionExampleScenario.node[3].nic.mac1609_4 	SentPackets 	0
scalar IntersectionExampleScenario.node[3].nic.mac1609_4 	SNIRLostPackets 	0
scalar IntersectionExampleScenario.node[3].nic.mac1609_4 	RXTXLostPackets 	0
scalar IntersectionExampleScenario.node[3].nic.mac1609_4 	TotalLostPackets 	0
scalar IntersectionExampleScenario.node[3].nic.mac1609_4 	DroppedPacketsInMac 	0
scalar IntersectionExampleScenario.node[3].nic.mac1609_4 	TooLittleTime 	0
scalar IntersectionExampleScenario.node[3].nic.mac1609_4 	TimesIntoBackoff 	0
scalar IntersectionExampleScenario.node[3].nic.mac1609_4 	SlotsBackoff 	0
scalar IntersectionExampleScenario.node[3].nic.mac1609_4 	NumInternalContention 	0
scalar IntersectionExampleScenario.node[3].nic.mac1609_4 	totalBusyTime 	0
scalar IntersectionExampleScenario.node[3].veinsmobility 	startTime 	10.75
scalar IntersectionExampleScenario.node[3].veinsmobility 	totalTime 	58.25
scalar IntersectionExampleScenario.node[3].veinsmobility 	stopTime 	69.25
scalar IntersectionExampleScenario.node[3].veinsmobility 	minSpeed 	0
scalar IntersectionExampleScenario.node[3].veinsmobility 	maxSpeed 	16.125
scalar IntersectionExampleScenario.node[3].veinsmobility 	totalDistance 	560.00314331055
scalar IntersectionExampleScenario.node[3].veinsmobility 	totalCO2Emission 	153.76962370043
scalar IntersectionExampleScenario.node[9].appl 	VehicleRemoved 	0
scalar IntersectionExampleScenario.node[9].appl 	ArrivedAtDest 	1
scalar IntersectionExampleScenario.node[9].appl 	IntersectionEnterTime 	36.5
scalar IntersectionExampleScenario.node[9].appl 	IntersectionExitTime 	62.780004775705
scalar IntersectionExampleScenario.node[9].appl 	NumberOfCollisions 	0
scalar IntersectionExampleScenario.node[9].nic.phy80211p 	busyTime 	0
scalar IntersectionExampleScenario.node[9].nic.mac1609_4 	ReceivedUnicastPackets 	0
scalar IntersectionExampleScenario.node[9].nic.mac1609_4 	ReceivedBroadcasts 	0
scalar IntersectionExampleScenario.node[9].nic.mac1609_4 	SentPackets 	0
scalar IntersectionExampleScenario.node[9].nic.mac1609_4 	SNIRLostPackets 	0
scalar IntersectionExampleScenario.node[9].nic.mac1609_4 	RXTXLostPackets 	0
scalar IntersectionExampleScenario.node[9].nic.mac1609_4 	TotalLostPackets 	0
scalar IntersectionExampleScenario.node[9].nic.mac1609_4 	DroppedPacketsInMac 	0
scalar IntersectionExampleScenario.node[9].nic.mac1609_4 	TooLittleTime 	0
scalar IntersectionExampleScenario.node[9].nic.mac1609_4 	TimesIntoBackoff 	0
scalar IntersectionExampleScenario.node[9].nic.mac1609_4 	SlotsBackoff 	0
scalar IntersectionExampleScenario.node[9].nic.mac1609_4 	NumInternalContention 	0
scalar IntersectionExampleScenario.node[9].nic.mac1609_4 	totalBusyTime 	0
scalar IntersectionExampleScenario.node[9].veinsmobility 	startTime 	36.5
scalar IntersectionExampleScenario.node[9].veinsmobility 	totalTime 	42.75
scalar IntersectionExampleScenario.node[9].veinsmobility 	stopTime 	79.5
scalar IntersectionExampleScenario.node[9].veinsmobility 	minSpeed 	0
scalar IntersectionExampleScenario.node[9].veinsmobility 	maxSpeed 	15.375
scalar IntersectionExampleScenario.node[9].veinsmobility 	totalDistance 	549.2184231801
scalar IntersectionExampleScenario.node[9].veinsmobility 	totalCO2Emission 	132.23287419773
scalar IntersectionExampleScenario.node[10].appl 	VehicleRemoved 	0
scalar IntersectionExampleScenario.node[10].appl 	ArrivedAtDest 	1
scalar IntersectionExampleScenario.node[10].appl 	IntersectionEnterTime 	44.5
scalar IntersectionExampleScenario.node[10].appl 	IntersectionExitTime 	67.350936292351
scalar IntersectionExampleScenario.node[10].appl 	NumberOfCollisions 	0
scalar IntersectionExampleScenario.node[10].nic.phy80211p 	busyTime 	0
scalar IntersectionExampleScenario.node[10].nic.mac1609_4 	ReceivedUnicastPackets 	0
scalar IntersectionExampleScenario.node[10].nic.mac1609_4 	ReceivedBroadcasts 	0
scalar IntersectionExampleScenario.node[10].nic.mac1609_4 	SentPackets 	0
scalar IntersectionExampleScenario.node[10].nic.mac1609_4 	SNIRLostPackets 	0
scalar IntersectionExampleScenario.node[10].nic.mac1609_4 	RXTXLostPackets 	0
scalar IntersectionExampleScenario.node[10].nic.mac1609_4 	TotalLostPackets 	0
scalar IntersectionExampleScenario.node[10].nic.mac1609_4 	DroppedPacketsInMac 	0
scalar IntersectionExampleScenario.node[10].nic.mac1609_4 	TooLittleTime 	0
scalar IntersectionExampleScenario.node[10].nic.mac1609_4 	TimesIntoBackoff 	0
scalar IntersectionExampleScenario.node[10].nic.mac1609_4 	SlotsBackoff 	0
scalar IntersectionExampleScenario.node[10].nic.mac1609_4 	NumInternalContention 	0
scalar IntersectionExampleScenario.node[10].nic.mac1609_4 	totalBusyTime 	0
scalar IntersectionExampleScenario.node[10].veinsmobility 	startTime 	44.5
scalar IntersectionExampleScenario.node[10].veinsmobility 	totalTime 	38.75
scalar IntersectionExampleScenario.node[10].veinsmobility 	stopTime 	83.5
scalar IntersectionExampleScenario.node[10].veinsmobility 	minSpeed 	5.6500000953674
scalar IntersectionExampleScenario.node[10].veinsmobility 	maxSpeed 	15.64999961853
scalar IntersectionExampleScenario.node[10].veinsmobility 	totalDistance 	553.63963317871
scalar IntersectionExampleScenario.node[10].veinsmobility 	totalCO2Emission 	121.13653696356
scalar IntersectionExampleScenario.node[11].appl 	VehicleRemoved 	0
scalar IntersectionExampleScenario.node[11].appl 	ArrivedAtDest 	1
scalar IntersectionExampleScenario.node[11].appl 	IntersectionEnterTime 	45
scalar IntersectionExampleScenario.node[11].appl 	IntersectionExitTime 	69.750049453229
scalar IntersectionExampleScenario.node[11].appl 	NumberOfCollisions 	0
scalar IntersectionExampleScenario.node[11].nic.phy80211p 	busyTime 	0
scalar IntersectionExampleScenario.node[11].nic.mac1609_4 	ReceivedUnicastPackets 	0
scalar IntersectionExampleScenario.node[11].nic.mac1609_4 	ReceivedBroadcasts 	0
scalar IntersectionExampleScenario.node[11].nic.mac1609_4 	SentPackets 	0
scalar IntersectionExampleScenario.node[11].nic.mac1609_4 	SNIRLostPackets 	0
scalar IntersectionExampleScenario.node[11].nic.mac1609_4 	RXTXLostPackets 	0
scalar IntersectionExampleScenario.node[11].nic.mac1609_4 	TotalLostPackets 	0
scalar IntersectionExampleScenario.node[11].nic.mac1609_4 	DroppedPacketsInMac 	0
scalar IntersectionExampleScenario.node[11].nic.mac1609_4 	TooLittleTime 	0
scalar IntersectionExampleScenario.node[11].nic.mac1609_4 	TimesIntoBackoff 	0
scalar IntersectionExampleScenario.node[11].nic.mac1609_4 	SlotsBackoff 	0
scalar IntersectionExampleScenario.node[11].nic.mac1609_4 	NumInternalContention 	0
scalar IntersectionExampleScenario.node[11].nic.mac1609_4 	totalBusyTime 	0
scalar IntersectionExampleScenario.node[11].veinsmobility 	startTime 	45
scalar IntersectionExampleScenario.node[11].veinsmobility 	totalTime 	40.75
scalar IntersectionExampleScenario.node[11].veinsmobility 	stopTime 	86
scalar IntersectionExampleScenario.node[11].veinsmobility 	minSpeed 	5.6500000953674
scalar IntersectionExampleScenario.node[11].veinsmobility 	maxSpeed 	16.058763504028
scalar IntersectionExampleScenario.node[11].veinsmobility 	totalDistance 	573.31484202327
scalar IntersectionExampleScenario.node[11].veinsmobility 	totalCO2Emission 	130.81100698856
scalar IntersectionExampleScenario.node[8].appl 	VehicleRemoved 	0
scalar IntersectionExampleScenario.node[8].appl 	ArrivedAtDest 	1
scalar IntersectionExampleScenario.node[8].appl 	IntersectionEnterTime 	35.75
scalar IntersectionExampleScenario.node[8].appl 	IntersectionExitTime 	74.268123793387
scalar IntersectionExampleScenario.node[8].appl 	NumberOfCollisions 	0
scalar IntersectionExampleScenario.node[8].nic.phy80211p 	busyTime 	0
scalar IntersectionExampleScenario.node[8].nic.mac1609_4 	ReceivedUnicastPackets 	0
scalar IntersectionExampleScenario.node[8].nic.mac1609_4 	ReceivedBroadcasts 	0
scalar IntersectionExampleScenario.node[8].nic.mac1609_4 	SentPackets 	0
scalar IntersectionExampleScenario.node[8].nic.mac1609_4 	SNIRLostPackets 	0
scalar IntersectionExampleScenario.node[8].nic.mac1609_4 	RXTXLostPackets 	0
scalar IntersectionExampleScenario.node[8].nic.mac1609_4 	TotalLostPackets 	0
scalar IntersectionExampleScenario.node[8].nic.mac1609_4 	DroppedPacketsInMac 	0
scalar IntersectionExampleScenario.node[8].nic.mac1609_4 	TooLittleTime 	0
scalar IntersectionExampleScenario.node[8].nic.mac1609_4 	TimesIntoBackoff 	0
scalar IntersectionExampleScenario.node[8].nic.mac1609_4 	SlotsBackoff 	0
scalar IntersectionExampleScenario.node[8].nic.mac1609_4 	NumInternalContention 	0
scalar IntersectionExampleScenario.node[8].nic.mac1609_4 	totalBusyTime 	0
scalar IntersectionExampleScenario.node[8].veinsmobility 	startTime 	35.75
scalar IntersectionExampleScenario.node[8].veinsmobility 	totalTime 	54.75
scalar IntersectionExampleScenario.node[8].veinsmobility 	stopTime 	90.75
scalar IntersectionExampleScenario.node[8].veinsmobility 	minSpeed 	0
scalar IntersectionExampleScenario.node[8].veinsmobility 	maxSpeed 	15.375
scalar IntersectionExampleScenario.node[8].veinsmobility 	totalDistance 	552.21952819824
scalar IntersectionExampleScenario.node[8].veinsmobility 	totalCO2Emission 	144.56709236752
scalar IntersectionExampleScenario.node[7].appl 	VehicleRemoved 	0
scalar IntersectionExampleScenario.node[7].appl 	ArrivedAtDest 	1
scalar IntersectionExampleScenario.node[7].appl 	IntersectionEnterTime 	34.5
scalar IntersectionExampleScenario.node[7].appl 	IntersectionExitTime 	74.295286986395
scalar IntersectionExampleScenario.node[7].appl 	NumberOfCollisions 	0
scalar IntersectionExampleScenario.node[7].nic.phy80211p 	busyTime 	0
scalar IntersectionExampleScenario.node[7].nic.mac1609_4 	ReceivedUnicastPackets 	0
scalar IntersectionExampleScenario.node[7].nic.mac1609_4 	ReceivedBroadcasts 	0
scalar IntersectionExampleScenario.node[7].nic.mac1609_4 	SentPackets 	0
scalar IntersectionExampleScenario.node[7].nic.mac1609_4 	SNIRLostPackets 	0
scalar IntersectionExampleScenario.node[7].nic.mac1609_4 	RXTXLostPackets 	0
scalar IntersectionExampleScenario.node[7].nic.mac1609_4 	TotalLostPackets 	0
scalar IntersectionExampleScenario.node[7].nic.mac1609_4 	DroppedPacketsInMac 	0
scalar IntersectionExampleScenario.node[7].nic.mac1609_4 	TooLittleTime 	0
scalar IntersectionExampleScenario.node[7].nic.mac1609_4 	TimesIntoBackoff 	0
scalar IntersectionExampleScenario.node[7].nic.mac1609_4 	SlotsBackoff 	0
scalar IntersectionExampleScenario.node[7].nic.mac1609_4 	NumInternalContention 	0
scalar IntersectionExampleScenario.node[7].nic.mac1609_4 	totalBusyTime 	0
scalar IntersectionExampleScenario.node[7].veinsmobility 	startTime 	34.5
scalar IntersectionExampleScenario.node[7].veinsmobility 	totalTime 	56.25
scalar IntersectionExampleScenario.node[7].veinsmobility 	stopTime 	91
scalar IntersectionExampleScenario.node[7].veinsmobility 	minSpeed 	0
scalar IntersectionExampleScenario.node[7].veinsmobility 	maxSpeed 	15.02499961853
scalar IntersectionExampleScenario.node[7].veinsmobility 	totalDistance 	551.7727432251
scalar IntersectionExampleScenario.node[7].veinsmobility 	totalCO2Emission 	144.07914085034
scalar IntersectionExampleScenario.node[14].appl 	VehicleRemoved 	0
scalar IntersectionExampleScenario.node[14].appl 	ArrivedAtDest 	1
scalar IntersectionExampleScenario.node[14].appl 	IntersectionEnterTime 	61.5
scalar IntersectionExampleScenario.node[14].appl 	IntersectionExitTime 	84.349543028366
scalar IntersectionExampleScenario.node[14].appl 	NumberOfCollisions 	0
scalar IntersectionExampleScenario.node[14].nic.phy80211p 	busyTime 	0
scalar IntersectionExampleScenario.node[14].nic.mac1609_4 	ReceivedUnicastPackets 	0
scalar IntersectionExampleScenario.node[14].nic.mac1609_4 	ReceivedBroadcasts 	0
scalar IntersectionExampleScenario.node[14].nic.mac1609_4 	SentPackets 	0
scalar IntersectionExampleScenario.node[14].nic.mac1609_4 	SNIRLostPackets 	0
scalar IntersectionExampleScenario.node[14].nic.mac1609_4 	RXTXLostPackets 	0
scalar IntersectionExampleScenario.node[14].nic.mac1609_4 	TotalLostPackets 	0
scalar IntersectionExampleScenario.node[14].nic.mac1609_4 	DroppedPacketsInMac 	0
scalar IntersectionExampleScenario.node[14].nic.mac1609_4 	TooLittleTime 	0
scalar IntersectionExampleScenario.node[14].nic.mac1609_4 	TimesIntoBackoff 	0
scalar IntersectionExampleScenario.node[14].nic.mac1609_4 	SlotsBackoff 	0
scalar IntersectionExampleScenario.node[14].nic.mac1609_4 	NumInternalContention 	0
scalar IntersectionExampleScenario.node[14].nic.mac1609_4 	totalBusyTime 	0
scalar IntersectionExampleScenario.node[14].veinsmobility 	startTime 	61.5
scalar IntersectionExampleScenario.node[14].veinsmobility 	totalTime 	38.75
scalar IntersectionExampleScenario.node[14].veinsmobility 	stopTime 	100.5
scalar IntersectionExampleScenario.node[14].veinsmobility 	minSpeed 	5.6500000953674
scalar IntersectionExampleScenario.node[14].veinsmobility 	maxSpeed 	16.27499961853
scalar IntersectionExampleScenario.node[14].veinsmobility 	totalDistance 	550.98492648582
scalar IntersectionExampleScenario.node[14].veinsmobility 	totalCO2Emission 	125.76508042335
scalar IntersectionExampleScenario.node[12].appl 	VehicleRemoved 	0
scalar IntersectionExampleScenario.node[12].appl 	ArrivedAtDest 	1
scalar IntersectionExampleScenario.node[12].appl 	IntersectionEnterTime 	46
scalar IntersectionExampleScenario.node[12].appl 	IntersectionExitTime 	87.288902289845
scalar IntersectionExampleScenario.node[12].appl 	NumberOfCollisions 	0
scalar IntersectionExampleScenario.node[12].nic.phy80211p 	busyTime 	0
scalar IntersectionExampleScenario.node[12].nic.mac1609_4 	ReceivedUnicastPackets 	0
scalar IntersectionExampleScenario.node[12].nic.mac1609_4 	ReceivedBroadcasts 	0
scalar IntersectionExampleScenario.node[12].nic.mac1609_4 	SentPackets 	0
scalar IntersectionExampleScenario.node[12].nic.mac1609_4 	SNIRLostPackets 	0
scalar IntersectionExampleScenario.node[12].nic.mac1609_4 	RXTXLostPackets 	0
scalar IntersectionExampleScenario.node[12].nic.mac1609_4 	TotalLostPackets 	0
scalar IntersectionExampleScenario.node[12].nic.mac1609_4 	DroppedPacketsInMac 	0
scalar IntersectionExampleScenario.node[12].nic.mac1609_4 	TooLittleTime 	0
scalar IntersectionExampleScenario.node[12].nic.mac1609_4 	TimesIntoBackoff 	0
scalar IntersectionExampleScenario.node[12].nic.mac1609_4 	SlotsBackoff 	0
scalar IntersectionExampleScenario.node[12].nic.mac1609_4 	NumInternalContention 	0
scalar IntersectionExampleScenario.node[12].nic.mac1609_4 	totalBusyTime 	0
scalar IntersectionExampleScenario.node[12].veinsmobility 	startTime 	46
scalar IntersectionExampleScenario.node[12].veinsmobility 	totalTime 	56.75
scalar IntersectionExampleScenario.node[12].veinsmobility 	stopTime 	103
scalar IntersectionExampleScenario.node[12].veinsmobility 	minSpeed 	0
scalar IntersectionExampleScenario.node[12].veinsmobility 	maxSpeed 	16
scalar IntersectionExampleScenario.node[12].veinsmobility 	totalDistance 	550.89945220947
scalar IntersectionExampleScenario.node[12].veinsmobility 	totalCO2Emission 	152.24093106623
scalar IntersectionExampleScenario.node[18].appl 	VehicleRemoved 	0
scalar IntersectionExampleScenario.node[18].appl 	ArrivedAtDest 	1
scalar IntersectionExampleScenario.node[18].appl 	IntersectionEnterTime 	72.75
scalar IntersectionExampleScenario.node[18].appl 	IntersectionExitTime 	95.531132150092
scalar IntersectionExampleScenario.node[18].appl 	NumberOfCollisions 	0
scalar IntersectionExampleScenario.node[18].nic.phy80211p 	busyTime 	0
scalar IntersectionExampleScenario.node[18].nic.mac1609_4 	ReceivedUnicastPackets 	0
scalar IntersectionExampleScenario.node[18].nic.mac1609_4 	ReceivedBroadcasts 	0
scalar IntersectionExampleScenario.node[18].nic.mac1609_4 	SentPackets 	0
scalar IntersectionExampleScenario.node[18].nic.mac1609_4 	SNIRLostPackets 	0
scalar IntersectionExampleScenario.node[18].nic.mac1609_4 	RXTXLostPackets 	0
scalar IntersectionExampleScenario.node[18].nic.mac1609_4 	TotalLostPackets 	0
scalar IntersectionExampleScenario.node[18].nic.mac1609_4 	DroppedPacketsInMac 	0
scalar IntersectionExampleScenario.node[18].nic.mac1609_4 	TooLittleTime 	0
scalar IntersectionExampleScenario.node[18].nic.mac1609_4 	TimesIntoBackoff 	0
scalar IntersectionExampleScenario.node[18].nic.mac1609_4 	SlotsBackoff 	0
scalar IntersectionExampleScenario.node[18].nic.mac1609_4 	NumInternalContention 	0
scalar IntersectionExampleScenario.node[18].nic.mac1609_4 	totalBusyTime 	0
scalar IntersectionExampleScenario.node[18].veinsmobility 	startTime 	72.75
scalar IntersectionExampleScenario.node[18].veinsmobility 	totalTime 	38.5
scalar IntersectionExampleScenario.node[18].veinsmobility 	stopTime 	111.5
scalar IntersectionExampleScenario.node[18].veinsmobility 	minSpeed 	5.6500000953674
scalar IntersectionExampleScenario.node[18].veinsmobility 	maxSpeed 	16.27499961853
scalar IntersectionExampleScenario.node[18].veinsmobility 	totalDistance 	551.24840674996
scalar IntersectionExampleScenario.node[18].veinsmobility 	totalCO2Emission 	126.82643870575
scalar IntersectionExampleScenario.node[13].appl 	VehicleRemoved 	0
scalar IntersectionExampleScenario.node[13].appl 	ArrivedAtDest 	1
scalar IntersectionExampleScenario.node[13].appl 	IntersectionEnterTime 	51
scalar IntersectionExampleScenario.node[13].appl 	IntersectionExitTime 	98.3619396266
scalar IntersectionExampleScenario.node[13].appl 	NumberOfCollisions 	0
scalar IntersectionExampleScenario.node[13].nic.phy80211p 	busyTime 	0
scalar IntersectionExampleScenario.node[13].nic.mac1609_4 	ReceivedUnicastPackets 	0
scalar IntersectionExampleScenario.node[13].nic.mac1609_4 	ReceivedBroadcasts 	0
scalar IntersectionExampleScenario.node[13].nic.mac1609_4 	SentPackets 	0
scalar IntersectionExampleScenario.node[13].nic.mac1609_4 	SNIRLostPackets 	0
scalar IntersectionExampleScenario.node[13].nic.mac1609_4 	RXTXLostPackets 	0
scalar IntersectionExampleScenario.node[13].nic.mac1609_4 	TotalLostPackets 	0
scalar IntersectionExampleScenario.node[13].nic.mac1609_4 	DroppedPacketsInMac 	0
scalar IntersectionExampleScenario.node[13].nic.mac1609_4 	TooLittleTime 	0
scalar IntersectionExampleScenario.node[13].nic.mac1609_4 	TimesIntoBackoff 	0
scalar IntersectionExampleScenario.node[13].nic.mac1609_4 	SlotsBackoff 	0
scalar IntersectionExampleScenario.node[13].nic.mac1609_4 	NumInternalContention 	0
scalar IntersectionExampleScenario.node[13].nic.mac1609_4 	totalBusyTime 	0
scalar IntersectionExampleScenario.node[13].veinsmobility 	startTime 	51
scalar IntersectionExampleScenario.node[13].veinsmobility 	totalTime 	63.25
scalar IntersectionExampleScenario.node[13].veinsmobility 	stopTime 	114.5
scalar IntersectionExampleScenario.node[13].veinsmobility 	minSpeed 	0
scalar IntersectionExampleScenario.node[13].veinsmobility 	maxSpeed 	15.64999961853
scalar IntersectionExampleScenario.node[13].veinsmobility 	totalDistance 	558.71739196777
scalar IntersectionExampleScenario.node[13].veinsmobility 	totalCO2Emission 	158.10877264859
scalar IntersectionExampleScenario.node[15].appl 	VehicleRemoved 	0
scalar IntersectionExampleScenario.node[15].appl 	ArrivedAtDest 	1
scalar IntersectionExampleScenario.node[15].appl 	IntersectionEnterTime 	63.75
scalar IntersectionExampleScenario.node[15].appl 	IntersectionExitTime 	99.307234996551
scalar IntersectionExampleScenario.node[15].appl 	NumberOfCollisions 	0
scalar IntersectionExampleScenario.node[15].nic.phy80211p 	busyTime 	0
scalar IntersectionExampleScenario.node[15].nic.mac1609_4 	ReceivedUnicastPackets 	0
scalar IntersectionExampleScenario.node[15].nic.mac1609_4 	ReceivedBroadcasts 	0
scalar IntersectionExampleScenario.node[15].nic.mac1609_4 	SentPackets 	0
scalar IntersectionExampleScenario.node[15].nic.mac1609_4 	SNIRLostPackets 	0
scalar IntersectionExampleScenario.node[15].nic.mac1609_4 	RXTXLostPackets 	0
scalar IntersectionExampleScenario.node[15].nic.mac1609_4 	TotalLostPackets 	0
scalar IntersectionExampleScenario.node[15].nic.mac1609_4 	DroppedPacketsInMac 	0
scalar IntersectionExampleScenario.node[15].nic.mac1609_4 	TooLittleTime 	0
scalar IntersectionExampleScenario.node[15].nic.mac1609_4 	TimesIntoBackoff 	0
scalar IntersectionExampleScenario.node[15].nic.mac1609_4 	SlotsBackoff 	0
scalar IntersectionExampleScenario.node[15].nic.mac1609_4 	NumInternalContention 	0
scalar IntersectionExampleScenario.node[15].nic.mac1609_4 	totalBusyTime 	0
scalar IntersectionExampleScenario.node[15].veinsmobility 	startTime 	63.75
scalar IntersectionExampleScenario.node[15].veinsmobility 	totalTime 	51
scalar IntersectionExampleScenario.node[15].veinsmobility 	stopTime 	115
scalar IntersectionExampleScenario.node[15].veinsmobility 	minSpeed 	0
scalar IntersectionExampleScenario.node[15].veinsmobility 	maxSpeed 	16.89999961853
scalar IntersectionExampleScenario.node[15].veinsmobility 	totalDistance 	551.36631613062
scalar IntersectionExampleScenario.node[15].veinsmobility 	totalCO2Emission 	149.23649588534
scalar IntersectionExampleScenario.node[16].appl 	VehicleRemoved 	0
scalar IntersectionExampleScenario.node[16].appl 	ArrivedAtDest 	1
scalar IntersectionExampleScenario.node[16].appl 	IntersectionEnterTime 	69
scalar IntersectionExampleScenario.node[16].appl 	IntersectionExitTime 	109.37316449214
scalar IntersectionExampleScenario.node[16].appl 	NumberOfCollisions 	0
scalar IntersectionExampleScenario.node[16].nic.phy80211p 	busyTime 	0
scalar IntersectionExampleScenario.node[16].nic.mac1609_4 	ReceivedUnicastPackets 	0
scalar IntersectionExampleScenario.node[16].nic.mac1609_4 	ReceivedBroadcasts 	0
scalar IntersectionExampleScenario.node[16].nic.mac1609_4 	SentPackets 	0
scalar IntersectionExampleScenario.node[16].nic.mac1609_4 	SNIRLostPackets 	0
scalar IntersectionExampleScenario.node[16].nic.mac1609_4 	RXTXLostPackets 	0
scalar IntersectionExampleScenario.node[16].nic.mac1609_4 	TotalLostPackets 	0
scalar IntersectionExampleScenario.node[16].nic.mac1609_4 	DroppedPacketsInMac 	0
scalar IntersectionExampleScenario.node[16].nic.mac1609_4 	TooLittleTime 	0
scalar IntersectionExampleScenario.node[16].nic.mac1609_4 	TimesIntoBackoff 	0
scalar IntersectionExampleScenario.node[16].nic.mac1609_4 	SlotsBackoff 	0
scalar IntersectionExampleScenario.node[16].nic.mac1609_4 	NumInternalContention 	0
scalar IntersectionExampleScenario.node[16].nic.mac1609_4 	totalBusyTime 	0
scalar IntersectionExampleScenario.node[16].veinsmobility 	startTime 	69
scalar IntersectionExampleScenario.node[16].veinsmobility 	totalTime 	56.75
scalar IntersectionExampleScenario.node[16].veinsmobility 	stopTime 	126
scalar IntersectionExampleScenario.node[16].veinsmobility 	minSpeed 	0
scalar IntersectionExampleScenario.node[16].veinsmobility 	maxSpeed 	15.02499961853
scalar IntersectionExampleScenario.node[16].veinsmobility 	totalDistance 	552.97398376465
scalar IntersectionExampleScenario.node[16].veinsmobility 	totalCO2Emission 	145.08224814452
scalar IntersectionExampleScenario.node[17].appl 	VehicleRemoved 	0
scalar IntersectionExampleScenario.node[17].appl 	ArrivedAtDest 	1
scalar IntersectionExampleScenario.node[17].appl 	IntersectionEnterTime 	71
scalar IntersectionExampleScenario.node[17].appl 	IntersectionExitTime 	111.01114502261
scalar IntersectionExampleScenario.node[17].appl 	NumberOfCollisions 	0
scalar IntersectionExampleScenario.node[17].nic.phy80211p 	busyTime 	0
scalar IntersectionExampleScenario.node[17].nic.mac1609_4 	ReceivedUnicastPackets 	0
scalar IntersectionExampleScenario.node[17].nic.mac1609_4 	ReceivedBroadcasts 	0
scalar IntersectionExampleScenario.node[17].nic.mac1609_4 	SentPackets 	0
scalar IntersectionExampleScenario.node[17].nic.mac1609_4 	SNIRLostPackets 	0
scalar IntersectionExampleScenario.node[17].nic.mac1609_4 	RXTXLostPackets 	0
scalar IntersectionExampleScenario.node[17].nic.mac1609_4 	TotalLostPackets 	0
scalar IntersectionExampleScenario.node[17].nic.mac1609_4 	DroppedPacketsInMac 	0
scalar IntersectionExampleScenario.node[17].nic.mac1609_4 	TooLittleTime 	0
scalar IntersectionExampleScenario.node[17].nic.mac1609_4 	TimesIntoBackoff 	0
scalar IntersectionExampleScenario.node[17].nic.mac1609_4 	SlotsBackoff 	0
scalar IntersectionExampleScenario.node[17].nic.mac1609_4 	NumInternalContention 	0
scalar IntersectionExampleScenario.node[17].nic.mac1609_4 	totalBusyTime 	0
scalar IntersectionExampleScenario.node[17].veinsmobility 	startTime 	71
scalar IntersectionExampleScenario.node[17].veinsmobility 	totalTime 	55.75
scalar IntersectionExampleScenario.node[17].veinsmobility 	stopTime 	127
scalar IntersectionExampleScenario.node[17].veinsmobility 	minSpeed 	0
scalar IntersectionExampleScenario.node[17].veinsmobility 	maxSpeed 	16.103368759155
scalar IntersectionExampleScenario.node[17].veinsmobility 	totalDistance 	569.57241821289
scalar IntersectionExampleScenario.node[17].veinsmobility 	totalCO2Emission 	158.81595193471
scalar IntersectionExampleScenario.node[19].appl 	VehicleRemoved 	0
scalar IntersectionExampleScenario.node[19].appl 	ArrivedAtDest 	1
scalar IntersectionExampleScenario.node[19].appl 	IntersectionEnterTime 	74.25
scalar IntersectionExampleScenario.node[19].appl 	IntersectionExitTime 	113.02342650606
scalar IntersectionExampleScenario.node[19].appl 	NumberOfCollisions 	0
scalar IntersectionExampleScenario.node[19].nic.phy80211p 	busyTime 	0
scalar IntersectionExampleScenario.node[19].nic.mac1609_4 	ReceivedUnicastPackets 	0
scalar IntersectionExampleScenario.node[19].nic.mac1609_4 	ReceivedBroadcasts 	0
scalar IntersectionExampleScenario.node[19].nic.mac1609_4 	SentPackets 	0
scalar IntersectionExampleScenario.node[19].nic.mac1609_4 	SNIRLostPackets 	0
scalar IntersectionExampleScenario.node[19].nic.mac1609_4 	RXTXLostPackets 	0
scalar IntersectionExampleScenario.node[19].nic.mac1609_4 	TotalLostPackets 	0
scalar IntersectionExampleScenario.node[19].nic.mac1609_4 	DroppedPacketsInMac 	0
scalar IntersectionExampleScenario.node[19].nic.mac1609_4 	TooLittleTime 	0
scalar IntersectionExampleScenario.node[19].nic.mac1609_4 	TimesIntoBackoff 	0
scalar IntersectionExampleScenario.node[19].nic.mac1609_4 	SlotsBackoff 	0
scalar IntersectionExampleScenario.node[19].nic.mac1609_4 	NumInternalContention 	0
scalar IntersectionExampleScenario.node[19].nic.mac1609_4 	totalBusyTime 	0
scalar IntersectionExampleScenario.node[19].veinsmobility 	startTime 	74.25
scalar IntersectionExampleScenario.node[19].veinsmobility 	totalTime 	54.75
scalar IntersectionExampleScenario.node[19].veinsmobility 	stopTime 	129.25
scalar IntersectionExampleScenario.node[19].veinsmobility 	minSpeed 	0
scalar IntersectionExampleScenario.node[19].veinsmobility 	maxSpeed 	16
scalar IntersectionExampleScenario.node[19].veinsmobility 	totalDistance 	570.626314422
scalar IntersectionExampleScenario.node[19].veinsmobility 	totalCO2Emission 	150.05320815256
scalar IntersectionExampleScenario.node[24].appl 	VehicleRemoved 	0
scalar IntersectionExampleScenario.node[24].appl 	ArrivedAtDest 	1
scalar IntersectionExampleScenario.node[24].appl 	IntersectionEnterTime 	114
scalar IntersectionExampleScenario.node[24].appl 	IntersectionExitTime 	143.56495556163
scalar IntersectionExampleScenario.node[24].appl 	NumberOfCollisions 	0
scalar IntersectionExampleScenario.node[24].nic.phy80211p 	busyTime 	0
scalar IntersectionExampleScenario.node[24].nic.mac1609_4 	ReceivedUnicastPackets 	0
scalar IntersectionExampleScenario.node[24].nic.mac1609_4 	ReceivedBroadcasts 	0
scalar IntersectionExampleScenario.node[24].nic.mac1609_4 	SentPackets 	0
scalar IntersectionExampleScenario.node[24].nic.mac1609_4 	SNIRLostPackets 	0
scalar IntersectionExampleScenario.node[24].nic.mac1609_4 	RXTXLostPackets 	0
scalar IntersectionExampleScenario.node[24].nic.mac1609_4 	TotalLostPackets 	0
scalar IntersectionExampleScenario.node[24].nic.mac1609_4 	DroppedPacketsInMac 	0
scalar IntersectionExampleScenario.node[24].nic.mac1609_4 	TooLittleTime 	0
scalar IntersectionExampleScenario.node[24].nic.mac1609_4 	TimesIntoBackoff 	0
scalar IntersectionExampleScenario.node[24].nic.mac1609_4 	SlotsBackoff 	0
scalar IntersectionExampleScenario.node[24].nic.mac1609_4 	NumInternalContention 	0
scalar IntersectionExampleScenario.node[24].nic.mac1609_4 	totalBusyTime 	0
scalar IntersectionExampleScenario.node[24].veinsmobility 	startTime 	114
scalar IntersectionExampleScenario.node[24].veinsmobility 	totalTime 	45.5
scalar IntersectionExampleScenario.node[24].veinsmobility 	stopTime 	159.75
scalar IntersectionExampleScenario.node[24].veinsmobility 	minSpeed 	0
scalar IntersectionExampleScenario.node[24].veinsmobility 	maxSpeed 	16.5
scalar IntersectionExampleScenario.node[24].veinsmobility 	totalDistance 	543.0530767575
scalar IntersectionExampleScenario.node[24].veinsmobility 	totalCO2Emission 	143.93696655143
scalar IntersectionExampleScenario.node[20].appl 	VehicleRemoved 	0
scalar IntersectionExampleScenario.node[20].appl 	ArrivedAtDest 	1
scalar IntersectionExampleScenario.node[20].appl 	IntersectionEnterTime 	97.5
scalar IntersectionExampleScenario.node[20].appl 	IntersectionExitTime 	145.30696372237
scalar IntersectionExampleScenario.node[20].appl 	NumberOfCollisions 	0
scalar IntersectionExampleScenario.node[20].nic.phy80211p 	busyTime 	0
scalar IntersectionExampleScenario.node[20].nic.mac1609_4 	ReceivedUnicastPackets 	0
scalar IntersectionExampleScenario.node[20].nic.mac1609_4 	ReceivedBroadcasts 	0
scalar IntersectionExampleScenario.node[20].nic.mac1609_4 	SentPackets 	0
scalar IntersectionExampleScenario.node[20].nic.mac1609_4 	SNIRLostPackets 	0
scalar IntersectionExampleScenario.node[20].nic.mac1609_4 	RXTXLostPackets 	0
scalar IntersectionExampleScenario.node[20].nic.mac1609_4 	TotalLostPackets 	0
scalar IntersectionExampleScenario.node[20].nic.mac1609_4 	DroppedPacketsInMac 	0
scalar IntersectionExampleScenario.node[20].nic.mac1609_4 	TooLittleTime 	0
scalar IntersectionExampleScenario.node[20].nic.mac1609_4 	TimesIntoBackoff 	0
scalar IntersectionExampleScenario.node[20].nic.mac1609_4 	SlotsBackoff 	0
scalar IntersectionExampleScenario.node[20].nic.mac1609_4 	NumInternalContention 	0
scalar IntersectionExampleScenario.node[20].nic.mac1609_4 	totalBusyTime 	0
scalar IntersectionExampleScenario.node[20].veinsmobility 	startTime 	97.5
scalar IntersectionExampleScenario.node[20].veinsmobility 	totalTime 	63.5
scalar IntersectionExampleScenario.node[20].veinsmobility 	stopTime 	161.25
scalar IntersectionExampleScenario.node[20].veinsmobility 	minSpeed 	0
scalar IntersectionExampleScenario.node[20].veinsmobility 	maxSpeed 	16.125
scalar IntersectionExampleScenario.node[20].veinsmobility 	totalDistance 	553.24063873291
scalar IntersectionExampleScenario.node[20].veinsmobility 	totalCO2Emission 	161.4889059351
scalar IntersectionExampleScenario.node[22].appl 	VehicleRemoved 	0
scalar IntersectionExampleScenario.node[22].appl 	ArrivedAtDest 	1
scalar IntersectionExampleScenario.node[22].appl 	IntersectionEnterTime 	99.25
scalar IntersectionExampleScenario.node[22].appl 	IntersectionExitTime 	143.56164614303
scalar IntersectionExampleScenario.node[22].appl 	NumberOfCollisions 	0
scalar IntersectionExampleScenario.node[22].nic.phy80211p 	busyTime 	0
scalar IntersectionExampleScenario.node[22].nic.mac1609_4 	ReceivedUnicastPackets 	0
scalar IntersectionExampleScenario.node[22].nic.mac1609_4 	ReceivedBroadcasts 	0
scalar IntersectionExampleScenario.node[22].nic.mac1609_4 	SentPackets 	0
scalar IntersectionExampleScenario.node[22].nic.mac1609_4 	SNIRLostPackets 	0
scalar IntersectionExampleScenario.node[22].nic.mac1609_4 	RXTXLostPackets 	0
scalar IntersectionExampleScenario.node[22].nic.mac1609_4 	TotalLostPackets 	0
scalar IntersectionExampleScenario.node[22].nic.mac1609_4 	DroppedPacketsInMac 	0
scalar IntersectionExampleScenario.node[22].nic.mac1609_4 	TooLittleTime 	0
scalar IntersectionExampleScenario.node[22].nic.mac1609_4 	TimesIntoBackoff 	0
scalar IntersectionExampleScenario.node[22].nic.mac1609_4 	SlotsBackoff 	0
scalar IntersectionExampleScenario.node[22].nic.mac1609_4 	NumInternalContention 	0
scalar IntersectionExampleScenario.node[22].nic.mac1609_4 	totalBusyTime 	0
scalar IntersectionExampleScenario.node[22].veinsmobility 	startTime 	99.25
scalar IntersectionExampleScenario.node[22].veinsmobility 	totalTime 	61.75
scalar IntersectionExampleScenario.node[22].veinsmobility 	stopTime 	161.25
scalar IntersectionExampleScenario.node[22].veinsmobility 	minSpeed 	0
scalar IntersectionExampleScenario.node[22].veinsmobility 	maxSpeed 	14.625
scalar IntersectionExampleScenario.node[22].veinsmobility 	totalDistance 	512.5963201657
scalar IntersectionExampleScenario.node[22].veinsmobility 	totalCO2Emission 	144.52032265845
scalar IntersectionExampleScenario.node[25].appl 	VehicleRemoved 	0
scalar IntersectionExampleScenario.node[25].appl 	ArrivedAtDest 	1
scalar IntersectionExampleScenario.node[25].appl 	IntersectionEnterTime 	115.75
scalar IntersectionExampleScenario.node[25].appl 	IntersectionExitTime 	146.0005280461
scalar IntersectionExampleScenario.node[25].appl 	NumberOfCollisions 	0
scalar IntersectionExampleScenario.node[25].nic.phy80211p 	busyTime 	0
scalar IntersectionExampleScenario.node[25].nic.mac1609_4 	ReceivedUnicastPackets 	0
scalar IntersectionExampleScenario.node[25].nic.mac1609_4 	ReceivedBroadcasts 	0
scalar IntersectionExampleScenario.node[25].nic.mac1609_4 	SentPackets 	0
scalar IntersectionExampleScenario.node[25].nic.mac1609_4 	SNIRLostPackets 	0
scalar IntersectionExampleScenario.node[25].nic.mac1609_4 	RXTXLostPackets 	0
scalar IntersectionExampleScenario.node[25].nic.mac1609_4 	TotalLostPackets 	0
scalar IntersectionExampleScenario.node[25].nic.mac1609_4 	DroppedPacketsInMac 	0
scalar IntersectionExampleScenario.node[25].nic.mac1609_4 	TooLittleTime 	0
scalar IntersectionExampleScenario.node[25].nic.mac1609_4 	TimesIntoBackoff 	0
scalar IntersectionExampleScenario.node[25].nic.mac1609_4 	SlotsBackoff 	0
scalar IntersectionExampleScenario.node[25].nic.mac1609_4 	NumInternalContention 	0
scalar IntersectionExampleScenario.node[25].nic.mac1609_4 	totalBusyTime 	0
scalar IntersectionExampleScenario.node[25].veinsmobility 	startTime 	115.75
scalar IntersectionExampleScenario.node[25].veinsmobility 	totalTime 	46.75
scalar IntersectionExampleScenario.node[25].veinsmobility 	stopTime 	162.75
scalar IntersectionExampleScenario.node[25].veinsmobility 	minSpeed 	0
scalar IntersectionExampleScenario.node[25].veinsmobility 	maxSpeed 	15.875
scalar IntersectionExampleScenario.node[25].veinsmobility 	totalDistance 	565.48208939531
scalar IntersectionExampleScenario.node[25].veinsmobility 	totalCO2Emission 	142.64255884731
scalar IntersectionExampleScenario.node[21].appl 	VehicleRemoved 	0
scalar IntersectionExampleScenario.node[21].appl 	ArrivedAtDest 	1
scalar IntersectionExampleScenario.node[21].appl 	IntersectionEnterTime 	98.25
scalar IntersectionExampleScenario.node[21].appl 	IntersectionExitTime 	147.5479457789
scalar IntersectionExampleScenario.node[21].appl 	NumberOfCollisions 	0
scalar IntersectionExampleScenario.node[21].nic.phy80211p 	busyTime 	0
scalar IntersectionExampleScenario.node[21].nic.mac1609_4 	ReceivedUnicastPackets 	0
scalar IntersectionExampleScenario.node[21].nic.mac1609_4 	ReceivedBroadcasts 	0
scalar IntersectionExampleScenario.node[21].nic.mac1609_4 	SentPackets 	0
scalar IntersectionExampleScenario.node[21].nic.mac1609_4 	SNIRLostPackets 	0
scalar IntersectionExampleScenario.node[21].nic.mac1609_4 	RXTXLostPackets 	0
scalar IntersectionExampleScenario.node[21].nic.mac1609_4 	TotalLostPackets 	0
scalar IntersectionExampleScenario.node[21].nic.mac1609_4 	DroppedPacketsInMac 	0
scalar IntersectionExampleScenario.node[21].nic.mac1609_4 	TooLittleTime 	0
scalar IntersectionExampleScenario.node[21].nic.mac1609_4 	TimesIntoBackoff 	0
scalar IntersectionExampleScenario.node[21].nic.mac1609_4 	SlotsBackoff 	0
scalar IntersectionExampleScenario.node[21].nic.mac1609_4 	NumInternalContention 	0
scalar IntersectionExampleScenario.node[21].nic.mac1609_4 	totalBusyTime 	0
scalar IntersectionExampleScenario.node[21].veinsmobility 	startTime 	98.25
scalar IntersectionExampleScenario.node[21].veinsmobility 	totalTime 	66
scalar IntersectionExampleScenario.node[21].veinsmobility 	stopTime 	164.5
scalar IntersectionExampleScenario.node[21].veinsmobility 	minSpeed 	0
scalar IntersectionExampleScenario.node[21].veinsmobility 	maxSpeed 	15.325536727905
scalar IntersectionExampleScenario.node[21].veinsmobility 	totalDistance 	567.85739515925
scalar IntersectionExampleScenario.node[21].veinsmobility 	totalCO2Emission 	160.68558990856
scalar IntersectionExampleScenario.node[26].appl 	VehicleRemoved 	0
scalar IntersectionExampleScenario.node[26].appl 	ArrivedAtDest 	1
scalar IntersectionExampleScenario.node[26].appl 	IntersectionEnterTime 	118
scalar IntersectionExampleScenario.node[26].appl 	IntersectionExitTime 	149.80051660715
scalar IntersectionExampleScenario.node[26].appl 	NumberOfCollisions 	0
scalar IntersectionExampleScenario.node[26].nic.phy80211p 	busyTime 	0
scalar IntersectionExampleScenario.node[26].nic.mac1609_4 	ReceivedUnicastPackets 	0
scalar IntersectionExampleScenario.node[26].nic.mac1609_4 	ReceivedBroadcasts 	0
scalar IntersectionExampleScenario.node[26].nic.mac1609_4 	SentPackets 	0
scalar IntersectionExampleScenario.node[26].nic.mac1609_4 	SNIRLostPackets 	0
scalar IntersectionExampleScenario.node[26].nic.mac1609_4 	RXTXLostPackets 	0
scalar IntersectionExampleScenario.node[26].nic.mac1609_4 	TotalLostPackets 	0
scalar IntersectionExampleScenario.node[26].nic.mac1609_4 	DroppedPacketsInMac 	0
scalar IntersectionExampleScenario.node[26].nic.mac1609_4 	TooLittleTime 	0
scalar IntersectionExampleScenario.node[26].nic.mac1609_4 	TimesIntoBackoff 	0
scalar IntersectionExampleScenario.node[26].nic.mac1609_4 	SlotsBackoff 	0
scalar IntersectionExampleScenario.node[26].nic.mac1609_4 	NumInternalContention 	0
scalar IntersectionExampleScenario.node[26].nic.mac1609_4 	totalBusyTime 	0
scalar IntersectionExampleScenario.node[26].veinsmobility 	startTime 	118
scalar IntersectionExampleScenario.node[26].veinsmobility 	totalTime 	47.5
scalar IntersectionExampleScenario.node[26].veinsmobility 	stopTime 	165.75
scalar IntersectionExampleScenario.node[26].veinsmobility 	minSpeed 	2.6167302131653
scalar IntersectionExampleScenario.node[26].veinsmobility 	maxSpeed 	16.125
scalar IntersectionExampleScenario.node[26].veinsmobility 	totalDistance 	554.489112854
scalar IntersectionExampleScenario.node[26].veinsmobility 	totalCO2Emission 	140.12420863872
scalar IntersectionExampleScenario.node[27].appl 	VehicleRemoved 	0
scalar IntersectionExampleScenario.node[27].appl 	ArrivedAtDest 	1
scalar IntersectionExampleScenario.node[27].appl 	IntersectionEnterTime 	126.25
scalar IntersectionExampleScenario.node[27].appl 	IntersectionExitTime 	149.59348229435
scalar IntersectionExampleScenario.node[27].appl 	NumberOfCollisions 	0
scalar IntersectionExampleScenario.node[27].nic.phy80211p 	busyTime 	0
scalar IntersectionExampleScenario.node[27].nic.mac1609_4 	ReceivedUnicastPackets 	0
scalar IntersectionExampleScenario.node[27].nic.mac1609_4 	ReceivedBroadcasts 	0
scalar IntersectionExampleScenario.node[27].nic.mac1609_4 	SentPackets 	0
scalar IntersectionExampleScenario.node[27].nic.mac1609_4 	SNIRLostPackets 	0
scalar IntersectionExampleScenario.node[27].nic.mac1609_4 	RXTXLostPackets 	0
scalar IntersectionExampleScenario.node[27].nic.mac1609_4 	TotalLostPackets 	0
scalar IntersectionExampleScenario.node[27].nic.mac1609_4 	DroppedPacketsInMac 	0
scalar IntersectionExampleScenario.node[27].nic.mac1609_4 	TooLittleTime 	0
scalar IntersectionExampleScenario.node[27].nic.mac1609_4 	TimesIntoBackoff 	0
scalar IntersectionExampleScenario.node[27].nic.mac1609_4 	SlotsBackoff 	0
scalar IntersectionExampleScenario.node[27].nic.mac1609_4 	NumInternalContention 	0
scalar IntersectionExampleScenario.node[27].nic.mac1609_4 	totalBusyTime 	0
scalar IntersectionExampleScenario.node[27].veinsmobility 	startTime 	126.25
scalar IntersectionExampleScenario.node[27].veinsmobility 	totalTime 	39.5
scalar IntersectionExampleScenario.node[27].veinsmobility 	stopTime 	166
scalar IntersectionExampleScenario.node[27].veinsmobility 	minSpeed 	5.6500000953674
scalar IntersectionExampleScenario.node[27].veinsmobility 	maxSpeed 	15.5
scalar IntersectionExampleScenario.node[27].veinsmobility 	totalDistance 	552.5125579834
scalar IntersectionExampleScenario.node[27].veinsmobility 	totalCO2Emission 	122.28340853596
scalar IntersectionExampleScenario.node[23].appl 	VehicleRemoved 	0
scalar IntersectionExampleScenario.node[23].appl 	ArrivedAtDest 	1
scalar IntersectionExampleScenario.node[23].appl 	IntersectionEnterTime 	109.25
scalar IntersectionExampleScenario.node[23].appl 	IntersectionExitTime 	157.31553158554
scalar IntersectionExampleScenario.node[23].appl 	NumberOfCollisions 	0
scalar IntersectionExampleScenario.node[23].nic.phy80211p 	busyTime 	0
scalar IntersectionExampleScenario.node[23].nic.mac1609_4 	ReceivedUnicastPackets 	0
scalar IntersectionExampleScenario.node[23].nic.mac1609_4 	ReceivedBroadcasts 	0
scalar IntersectionExampleScenario.node[23].nic.mac1609_4 	SentPackets 	0
scalar IntersectionExampleScenario.node[23].nic.mac1609_4 	SNIRLostPackets 	0
scalar IntersectionExampleScenario.node[23].nic.mac1609_4 	RXTXLostPackets 	0
scalar IntersectionExampleScenario.node[23].nic.mac1609_4 	TotalLostPackets 	0
scalar IntersectionExampleScenario.node[23].nic.mac1609_4 	DroppedPacketsInMac 	0
scalar IntersectionExampleScenario.node[23].nic.mac1609_4 	TooLittleTime 	0
scalar IntersectionExampleScenario.node[23].nic.mac1609_4 	TimesIntoBackoff 	0
scalar IntersectionExampleScenario.node[23].nic.mac1609_4 	SlotsBackoff 	0
scalar IntersectionExampleScenario.node[23].nic.mac1609_4 	NumInternalContention 	0
scalar IntersectionExampleScenario.node[23].nic.mac1609_4 	totalBusyTime 	0
scalar IntersectionExampleScenario.node[23].veinsmobility 	startTime 	109.25
scalar IntersectionExampleScenario.node[23].veinsmobility 	totalTime 	64.25
scalar IntersectionExampleScenario.node[23].veinsmobility 	stopTime 	173.75
scalar IntersectionExampleScenario.node[23].veinsmobility 	minSpeed 	0
scalar IntersectionExampleScenario.node[23].veinsmobility 	maxSpeed 	15.375
scalar IntersectionExampleScenario.node[23].veinsmobility 	totalDistance 	548.74360765567
scalar IntersectionExampleScenario.node[23].veinsmobility 	totalCO2Emission 	154.68617544717
scalar IntersectionExampleScenario.node[28].appl 	VehicleRemoved 	0
scalar IntersectionExampleScenario.node[28].appl 	ArrivedAtDest 	1
scalar IntersectionExampleScenario.node[28].appl 	IntersectionEnterTime 	128.25
scalar IntersectionExampleScenario.node[28].appl 	IntersectionExitTime 	168.37129717832
scalar IntersectionExampleScenario.node[28].appl 	NumberOfCollisions 	0
scalar IntersectionExampleScenario.node[28].nic.phy80211p 	busyTime 	0
scalar IntersectionExampleScenario.node[28].nic.mac1609_4 	ReceivedUnicastPackets 	0
scalar IntersectionExampleScenario.node[28].nic.mac1609_4 	ReceivedBroadcasts 	0
scalar IntersectionExampleScenario.node[28].nic.mac1609_4 	SentPackets 	0
scalar IntersectionExampleScenario.node[28].nic.mac1609_4 	SNIRLostPackets 	0
scalar IntersectionExampleScenario.node[28].nic.mac1609_4 	RXTXLostPackets 	0
scalar IntersectionExampleScenario.node[28].nic.mac1609_4 	TotalLostPackets 	0
scalar IntersectionExampleScenario.node[28].nic.mac1609_4 	DroppedPacketsInMac 	0
scalar IntersectionExampleScenario.node[28].nic.mac1609_4 	TooLittleTime 	0
scalar IntersectionExampleScenario.node[28].nic.mac1609_4 	TimesIntoBackoff 	0
scalar IntersectionExampleScenario.node[28].nic.mac1609_4 	SlotsBackoff 	0
scalar IntersectionExampleScenario.node[28].nic.mac1609_4 	NumInternalContention 	0
scalar IntersectionExampleScenario.node[28].nic.mac1609_4 	totalBusyTime 	0
scalar IntersectionExampleScenario.node[28].veinsmobility 	startTime 	128.25
scalar IntersectionExampleScenario.node[28].veinsmobility 	totalTime 	57
scalar IntersectionExampleScenario.node[28].veinsmobility 	stopTime 	185.5
scalar IntersectionExampleScenario.node[28].veinsmobility 	minSpeed 	0
scalar IntersectionExampleScenario.node[28].veinsmobility 	maxSpeed 	14.75
scalar IntersectionExampleScenario.node[28].veinsmobility 	totalDistance 	552.27163696289
scalar IntersectionExampleScenario.node[28].veinsmobility 	totalCO2Emission 	141.38675714
scalar IntersectionExampleScenario.node[29].appl 	VehicleRemoved 	0
scalar IntersectionExampleScenario.node[29].appl 	ArrivedAtDest 	1
scalar IntersectionExampleScenario.node[29].appl 	IntersectionEnterTime 	142.25
scalar IntersectionExampleScenario.node[29].appl 	IntersectionExitTime 	170.57487405589
scalar IntersectionExampleScenario.node[29].appl 	NumberOfCollisions 	0
scalar IntersectionExampleScenario.node[29].nic.phy80211p 	busyTime 	0
scalar IntersectionExampleScenario.node[29].nic.mac1609_4 	ReceivedUnicastPackets 	0
scalar IntersectionExampleScenario.node[29].nic.mac1609_4 	ReceivedBroadcasts 	0
scalar IntersectionExampleScenario.node[29].nic.mac1609_4 	SentPackets 	0
scalar IntersectionExampleScenario.node[29].nic.mac1609_4 	SNIRLostPackets 	0
scalar IntersectionExampleScenario.node[29].nic.mac1609_4 	RXTXLostPackets 	0
scalar IntersectionExampleScenario.node[29].nic.mac1609_4 	TotalLostPackets 	0
scalar IntersectionExampleScenario.node[29].nic.mac1609_4 	DroppedPacketsInMac 	0
scalar IntersectionExampleScenario.node[29].nic.mac1609_4 	TooLittleTime 	0
scalar IntersectionExampleScenario.node[29].nic.mac1609_4 	TimesIntoBackoff 	0
scalar IntersectionExampleScenario.node[29].nic.mac1609_4 	SlotsBackoff 	0
scalar IntersectionExampleScenario.node[29].nic.mac1609_4 	NumInternalContention 	0
scalar IntersectionExampleScenario.node[29].nic.mac1609_4 	totalBusyTime 	0
scalar IntersectionExampleScenario.node[29].veinsmobility 	startTime 	142.25
scalar IntersectionExampleScenario.node[29].veinsmobility 	totalTime 	44.25
scalar IntersectionExampleScenario.node[29].veinsmobility 	stopTime 	186.75
scalar IntersectionExampleScenario.node[29].veinsmobility 	minSpeed 	4.1670484542847
scalar IntersectionExampleScenario.node[29].veinsmobility 	maxSpeed 	16.178058624268
scalar IntersectionExampleScenario.node[29].veinsmobility 	totalDistance 	552.41886901855
scalar IntersectionExampleScenario.node[29].veinsmobility 	totalCO2Emission 	138.93950144501
scalar IntersectionExampleScenario.node[31].appl 	VehicleRemoved 	0
scalar IntersectionExampleScenario.node[31].appl 	ArrivedAtDest 	1
scalar IntersectionExampleScenario.node[31].appl 	IntersectionEnterTime 	147
scalar IntersectionExampleScenario.node[31].appl 	IntersectionExitTime 	173.07652508884
scalar IntersectionExampleScenario.node[31].appl 	NumberOfCollisions 	0
scalar IntersectionExampleScenario.node[31].nic.phy80211p 	busyTime 	0
scalar IntersectionExampleScenario.node[31].nic.mac1609_4 	ReceivedUnicastPackets 	0
scalar IntersectionExampleScenario.node[31].nic.mac1609_4 	ReceivedBroadcasts 	0
scalar IntersectionExampleScenario.node[31].nic.mac1609_4 	SentPackets 	0
scalar IntersectionExampleScenario.node[31].nic.mac1609_4 	SNIRLostPackets 	0
scalar IntersectionExampleScenario.node[31].nic.mac1609_4 	RXTXLostPackets 	0
scalar IntersectionExampleScenario.node[31].nic.mac1609_4 	TotalLostPackets 	0
scalar IntersectionExampleScenario.node[31].nic.mac1609_4 	DroppedPacketsInMac 	0
scalar IntersectionExampleScenario.node[31].nic.mac1609_4 	TooLittleTime 	0
scalar IntersectionExampleScenario.node[31].nic.mac1609_4 	TimesIntoBackoff 	0
scalar IntersectionExampleScenario.node[31].nic.mac1609_4 	SlotsBackoff 	0
scalar IntersectionExampleScenario.node[31].nic.mac1609_4 	NumInternalContention 	0
scalar IntersectionExampleScenario.node[31].nic.mac1609_4 	totalBusyTime 	0
scalar IntersectionExampleScenario.node[31].veinsmobility 	startTime 	147
scalar IntersectionExampleScenario.node[31].veinsmobility 	totalTime 	42
scalar IntersectionExampleScenario.node[31].veinsmobility 	stopTime 	189.25
scalar IntersectionExampleScenario.node[31].veinsmobility 	minSpeed 	4.6756610870361
scalar IntersectionExampleScenario.node[31].veinsmobility 	maxSpeed 	15.64999961853
scalar IntersectionExampleScenario.node[31].veinsmobility 	totalDistance 	530.16363525391
scalar IntersectionExampleScenario.node[31].veinsmobility 	totalCO2Emission 	129.31382598481
scalar IntersectionExampleScenario.node[30].appl 	VehicleRemoved 	0
scalar IntersectionExampleScenario.node[30].appl 	ArrivedAtDest 	1
scalar IntersectionExampleScenario.node[30].appl 	IntersectionEnterTime 	146
scalar IntersectionExampleScenario.node[30].appl 	IntersectionExitTime 	175.32397086025
scalar IntersectionExampleScenario.node[30].appl 	NumberOfCollisions 	0
scalar IntersectionExampleScenario.node[30].nic.phy80211p 	busyTime 	0
scalar IntersectionExampleScenario.node[30].nic.mac1609_4 	ReceivedUnicastPackets 	0
scalar IntersectionExampleScenario.node[30].nic.mac1609_4 	ReceivedBroadcasts 	0
scalar IntersectionExampleScenario.node[30].nic.mac1609_4 	SentPackets 	0
scalar IntersectionExampleScenario.node[30].nic.mac1609_4 	SNIRLostPackets 	0
scalar IntersectionExampleScenario.node[30].nic.mac1609_4 	RXTXLostPackets 	0
scalar IntersectionExampleScenario.node[30].nic.mac1609_4 	TotalLostPackets 	0
scalar IntersectionExampleScenario.node[30].nic.mac1609_4 	DroppedPacketsInMac 	0
scalar IntersectionExampleScenario.node[30].nic.mac1609_4 	TooLittleTime 	0
scalar IntersectionExampleScenario.node[30].nic.mac1609_4 	TimesIntoBackoff 	0
scalar IntersectionExampleScenario.node[30].nic.mac1609_4 	SlotsBackoff 	0
scalar IntersectionExampleScenario.node[30].nic.mac1609_4 	NumInternalContention 	0
scalar IntersectionExampleScenario.node[30].nic.mac1609_4 	totalBusyTime 	0
scalar IntersectionExampleScenario.node[30].veinsmobility 	startTime 	146
scalar IntersectionExampleScenario.node[30].veinsmobility 	totalTime 	46.25
scalar IntersectionExampleScenario.node[30].veinsmobility 	stopTime 	192.5
scalar IntersectionExampleScenario.node[30].veinsmobility 	minSpeed 	5.6500000953674
scalar IntersectionExampleScenario.node[30].veinsmobility 	maxSpeed 	14.811910629272
scalar IntersectionExampleScenario.node[30].veinsmobility 	totalDistance 	558.03587086298
scalar IntersectionExampleScenario.node[30].veinsmobility 	totalCO2Emission 	135.47224686827
scalar IntersectionExampleScenario.node[32].appl 	VehicleRemoved 	0
scalar IntersectionExampleScenario.node[32].appl 	ArrivedAtDest 	1
scalar IntersectionExampleScenario.node[32].appl 	IntersectionEnterTime 	149.5
scalar IntersectionExampleScenario.node[32].appl 	IntersectionExitTime 	177.01363159405
scalar IntersectionExampleScenario.node[32].appl 	NumberOfCollisions 	0
scalar IntersectionExampleScenario.node[32].nic.phy80211p 	busyTime 	0
scalar IntersectionExampleScenario.node[32].nic.mac1609_4 	ReceivedUnicastPackets 	0
scalar IntersectionExampleScenario.node[32].nic.mac1609_4 	ReceivedBroadcasts 	0
scalar IntersectionExampleScenario.node[32].nic.mac1609_4 	SentPackets 	0
scalar IntersectionExampleScenario.node[32].nic.mac1609_4 	SNIRLostPackets 	0
scalar IntersectionExampleScenario.node[32].nic.mac1609_4 	RXTXLostPackets 	0
scalar IntersectionExampleScenario.node[32].nic.mac1609_4 	TotalLostPackets 	0
scalar IntersectionExampleScenario.node[32].nic.mac1609_4 	DroppedPacketsInMac 	0
scalar IntersectionExampleScenario.node[32].nic.mac1609_4 	TooLittleTime 	0
scalar IntersectionExampleScenario.node[32].nic.mac1609_4 	TimesIntoBackoff 	0
scalar IntersectionExampleScenario.node[32].nic.mac1609_4 	SlotsBackoff 	0
scalar IntersectionExampleScenario.node[32].nic.mac1609_4 	NumInternalContention 	0
scalar IntersectionExampleScenario.node[32].nic.mac1609_4 	totalBusyTime 	0
scalar IntersectionExampleScenario.node[32].veinsmobility 	startTime 	149.5
scalar IntersectionExampleScenario.node[32].veinsmobility 	totalTime 	44.5
scalar IntersectionExampleScenario.node[32].veinsmobility 	stopTime 	194.25
scalar IntersectionExampleScenario.node[32].veinsmobility 	minSpeed 	5.6500000953674
scalar IntersectionExampleScenario.node[32].veinsmobility 	maxSpeed 	14.875
scalar IntersectionExampleScenario.node[32].veinsmobility 	totalDistance 	569.86511230469
scalar IntersectionExampleScenario.node[32].veinsmobility 	totalCO2Emission 	126.32994351425
scalar IntersectionExampleScenario.node[33].appl 	VehicleRemoved 	0
scalar IntersectionExampleScenario.node[33].appl 	ArrivedAtDest 	1
scalar IntersectionExampleScenario.node[33].appl 	IntersectionEnterTime 	153.25
scalar IntersectionExampleScenario.node[33].appl 	IntersectionExitTime 	178.54987259998
scalar IntersectionExampleScenario.node[33].appl 	NumberOfCollisions 	0
scalar IntersectionExampleScenario.node[33].nic.phy80211p 	busyTime 	0
scalar IntersectionExampleScenario.node[33].nic.mac1609_4 	ReceivedUnicastPackets 	0
scalar IntersectionExampleScenario.node[33].nic.mac1609_4 	ReceivedBroadcasts 	0
scalar IntersectionExampleScenario.node[33].nic.mac1609_4 	SentPackets 	0
scalar IntersectionExampleScenario.node[33].nic.mac1609_4 	SNIRLostPackets 	0
scalar IntersectionExampleScenario.node[33].nic.mac1609_4 	RXTXLostPackets 	0
scalar IntersectionExampleScenario.node[33].nic.mac1609_4 	TotalLostPackets 	0
scalar IntersectionExampleScenario.node[33].nic.mac1609_4 	DroppedPacketsInMac 	0
scalar IntersectionExampleScenario.node[33].nic.mac1609_4 	TooLittleTime 	0
scalar IntersectionExampleScenario.node[33].nic.mac1609_4 	TimesIntoBackoff 	0
scalar IntersectionExampleScenario.node[33].nic.mac1609_4 	SlotsBackoff 	0
scalar IntersectionExampleScenario.node[33].nic.mac1609_4 	NumInternalContention 	0
scalar IntersectionExampleScenario.node[33].nic.mac1609_4 	totalBusyTime 	0
scalar IntersectionExampleScenario.node[33].veinsmobility 	startTime 	153.25
scalar IntersectionExampleScenario.node[33].veinsmobility 	totalTime 	42
scalar IntersectionExampleScenario.node[33].veinsmobility 	stopTime 	195.5
scalar IntersectionExampleScenario.node[33].veinsmobility 	minSpeed 	4.0925216674805
scalar IntersectionExampleScenario.node[33].veinsmobility 	maxSpeed 	15.375
scalar IntersectionExampleScenario.node[33].veinsmobility 	totalDistance 	552.00823699555
scalar IntersectionExampleScenario.node[33].veinsmobility 	totalCO2Emission 	129.7504055796
scalar IntersectionExampleScenario.node[34].appl 	VehicleRemoved 	0
scalar IntersectionExampleScenario.node[34].appl 	ArrivedAtDest 	1
scalar IntersectionExampleScenario.node[34].appl 	IntersectionEnterTime 	156.75
scalar IntersectionExampleScenario.node[34].appl 	IntersectionExitTime 	180.3568060541
scalar IntersectionExampleScenario.node[34].appl 	NumberOfCollisions 	0
scalar IntersectionExampleScenario.node[34].nic.phy80211p 	busyTime 	0
scalar IntersectionExampleScenario.node[34].nic.mac1609_4 	ReceivedUnicastPackets 	0
scalar IntersectionExampleScenario.node[34].nic.mac1609_4 	ReceivedBroadcasts 	0
scalar IntersectionExampleScenario.node[34].nic.mac1609_4 	SentPackets 	0
scalar IntersectionExampleScenario.node[34].nic.mac1609_4 	SNIRLostPackets 	0
scalar IntersectionExampleScenario.node[34].nic.mac1609_4 	RXTXLostPackets 	0
scalar IntersectionExampleScenario.node[34].nic.mac1609_4 	TotalLostPackets 	0
scalar IntersectionExampleScenario.node[34].nic.mac1609_4 	DroppedPacketsInMac 	0
scalar IntersectionExampleScenario.node[34].nic.mac1609_4 	TooLittleTime 	0
scalar IntersectionExampleScenario.node[34].nic.mac1609_4 	TimesIntoBackoff 	0
scalar IntersectionExampleScenario.node[34].nic.mac1609_4 	SlotsBackoff 	0
scalar IntersectionExampleScenario.node[34].nic.mac1609_4 	NumInternalContention 	0
scalar IntersectionExampleScenario.node[34].nic.mac1609_4 	totalBusyTime 	0
scalar IntersectionExampleScenario.node[34].veinsmobility 	startTime 	156.75
scalar IntersectionExampleScenario.node[34].veinsmobility 	totalTime 	39
scalar IntersectionExampleScenario.node[34].veinsmobility 	stopTime 	196
scalar IntersectionExampleScenario.node[34].veinsmobility 	minSpeed 	5.6500000953674
scalar IntersectionExampleScenario.node[34].veinsmobility 	maxSpeed 	15.974500656128
scalar IntersectionExampleScenario.node[34].veinsmobility 	totalDistance 	563.36972045898
scalar IntersectionExampleScenario.node[34].veinsmobility 	totalCO2Emission 	130.371607044
scalar IntersectionExampleScenario.node[35].appl 	VehicleRemoved 	0
scalar IntersectionExampleScenario.node[35].appl 	ArrivedAtDest 	1
scalar IntersectionExampleScenario.node[35].appl 	IntersectionEnterTime 	157.75
scalar IntersectionExampleScenario.node[35].appl 	IntersectionExitTime 	181.32414812103
scalar IntersectionExampleScenario.node[35].appl 	NumberOfCollisions 	0
scalar IntersectionExampleScenario.node[35].nic.phy80211p 	busyTime 	0
scalar IntersectionExampleScenario.node[35].nic.mac1609_4 	ReceivedUnicastPackets 	0
scalar IntersectionExampleScenario.node[35].nic.mac1609_4 	ReceivedBroadcasts 	0
scalar IntersectionExampleScenario.node[35].nic.mac1609_4 	SentPackets 	0
scalar IntersectionExampleScenario.node[35].nic.mac1609_4 	SNIRLostPackets 	0
scalar IntersectionExampleScenario.node[35].nic.mac1609_4 	RXTXLostPackets 	0
scalar IntersectionExampleScenario.node[35].nic.mac1609_4 	TotalLostPackets 	0
scalar IntersectionExampleScenario.node[35].nic.mac1609_4 	DroppedPacketsInMac 	0
scalar IntersectionExampleScenario.node[35].nic.mac1609_4 	TooLittleTime 	0
scalar IntersectionExampleScenario.node[35].nic.mac1609_4 	TimesIntoBackoff 	0
scalar IntersectionExampleScenario.node[35].nic.mac1609_4 	SlotsBackoff 	0
scalar IntersectionExampleScenario.node[35].nic.mac1609_4 	NumInternalContention 	0
scalar IntersectionExampleScenario.node[35].nic.mac1609_4 	totalBusyTime 	0
scalar IntersectionExampleScenario.node[35].veinsmobility 	startTime 	157.75
scalar IntersectionExampleScenario.node[35].veinsmobility 	totalTime 	40
scalar IntersectionExampleScenario.node[35].veinsmobility 	stopTime 	198
scalar IntersectionExampleScenario.node[35].veinsmobility 	minSpeed 	5.6500000953674
scalar IntersectionExampleScenario.node[35].veinsmobility 	maxSpeed 	15.194120407104
scalar IntersectionExampleScenario.node[35].veinsmobility 	totalDistance 	550.21482522137
scalar IntersectionExampleScenario.node[35].veinsmobility 	totalCO2Emission 	120.67858620169
scalar IntersectionExampleScenario.node[36].appl 	VehicleRemoved 	0
scalar IntersectionExampleScenario.node[36].appl 	ArrivedAtDest 	1
scalar IntersectionExampleScenario.node[36].appl 	IntersectionEnterTime 	160.5
scalar IntersectionExampleScenario.node[36].appl 	IntersectionExitTime 	184.10641935433
scalar IntersectionExampleScenario.node[36].appl 	NumberOfCollisions 	0
scalar IntersectionExampleScenario.node[36].nic.phy80211p 	busyTime 	0
scalar IntersectionExampleScenario.node[36].nic.mac1609_4 	ReceivedUnicastPackets 	0
scalar IntersectionExampleScenario.node[36].nic.mac1609_4 	ReceivedBroadcasts 	0
scalar IntersectionExampleScenario.node[36].nic.mac1609_4 	SentPackets 	0
scalar IntersectionExampleScenario.node[36].nic.mac1609_4 	SNIRLostPackets 	0
scalar IntersectionExampleScenario.node[36].nic.mac1609_4 	RXTXLostPackets 	0
scalar IntersectionExampleScenario.node[36].nic.mac1609_4 	TotalLostPackets 	0
scalar IntersectionExampleScenario.node[36].nic.mac1609_4 	DroppedPacketsInMac 	0
scalar IntersectionExampleScenario.node[36].nic.mac1609_4 	TooLittleTime 	0
scalar IntersectionExampleScenario.node[36].nic.mac1609_4 	TimesIntoBackoff 	0
scalar IntersectionExampleScenario.node[36].nic.mac1609_4 	SlotsBackoff 	0
scalar IntersectionExampleScenario.node[36].nic.mac1609_4 	NumInternalContention 	0
scalar IntersectionExampleScenario.node[36].nic.mac1609_4 	totalBusyTime 	0
scalar IntersectionExampleScenario.node[36].veinsmobility 	startTime 	160.5
scalar IntersectionExampleScenario.node[36].veinsmobility 	totalTime 	39.75
scalar IntersectionExampleScenario.node[36].veinsmobility 	stopTime 	200.5
scalar IntersectionExampleScenario.node[36].veinsmobility 	minSpeed 	5.6500000953674
scalar IntersectionExampleScenario.node[36].veinsmobility 	maxSpeed 	16.649824142456
scalar IntersectionExampleScenario.node[36].veinsmobility 	totalDistance 	559.08023002066
scalar IntersectionExampleScenario.node[36].veinsmobility 	totalCO2Emission 	137.02906100706
scalar IntersectionExampleScenario.node[38].appl 	VehicleRemoved 	0
scalar IntersectionExampleScenario.node[38].appl 	ArrivedAtDest 	1
scalar IntersectionExampleScenario.node[38].appl 	IntersectionEnterTime 	163
scalar IntersectionExampleScenario.node[38].appl 	IntersectionExitTime 	188.51404590125
scalar IntersectionExampleScenario.node[38].appl 	NumberOfCollisions 	0
scalar IntersectionExampleScenario.node[38].nic.phy80211p 	busyTime 	0
scalar IntersectionExampleScenario.node[38].nic.mac1609_4 	ReceivedUnicastPackets 	0
scalar IntersectionExampleScenario.node[38].nic.mac1609_4 	ReceivedBroadcasts 	0
scalar IntersectionExampleScenario.node[38].nic.mac1609_4 	SentPackets 	0
scalar IntersectionExampleScenario.node[38].nic.mac1609_4 	SNIRLostPackets 	0
scalar IntersectionExampleScenario.node[38].nic.mac1609_4 	RXTXLostPackets 	0
scalar IntersectionExampleScenario.node[38].nic.mac1609_4 	TotalLostPackets 	0
scalar IntersectionExampleScenario.node[38].nic.mac1609_4 	DroppedPacketsInMac 	0
scalar IntersectionExampleScenario.node[38].nic.mac1609_4 	TooLittleTime 	0
scalar IntersectionExampleScenario.node[38].nic.mac1609_4 	TimesIntoBackoff 	0
scalar IntersectionExampleScenario.node[38].nic.mac1609_4 	SlotsBackoff 	0
scalar IntersectionExampleScenario.node[38].nic.mac1609_4 	NumInternalContention 	0
scalar IntersectionExampleScenario.node[38].nic.mac1609_4 	totalBusyTime 	0
scalar IntersectionExampleScenario.node[38].veinsmobility 	startTime 	163
scalar IntersectionExampleScenario.node[38].veinsmobility 	totalTime 	42.75
scalar IntersectionExampleScenario.node[38].veinsmobility 	stopTime 	206
scalar IntersectionExampleScenario.node[38].veinsmobility 	minSpeed 	5.6500000953674
scalar IntersectionExampleScenario.node[38].veinsmobility 	maxSpeed 	15.25
scalar IntersectionExampleScenario.node[38].veinsmobility 	totalDistance 	567.48718439448
scalar IntersectionExampleScenario.node[38].veinsmobility 	totalCO2Emission 	128.02047175892
scalar IntersectionExampleScenario.node[39].appl 	VehicleRemoved 	0
scalar IntersectionExampleScenario.node[39].appl 	ArrivedAtDest 	1
scalar IntersectionExampleScenario.node[39].appl 	IntersectionEnterTime 	167.75
scalar IntersectionExampleScenario.node[39].appl 	IntersectionExitTime 	204.3674123993
scalar IntersectionExampleScenario.node[39].appl 	NumberOfCollisions 	0
scalar IntersectionExampleScenario.node[39].nic.phy80211p 	busyTime 	0
scalar IntersectionExampleScenario.node[39].nic.mac1609_4 	ReceivedUnicastPackets 	0
scalar IntersectionExampleScenario.node[39].nic.mac1609_4 	ReceivedBroadcasts 	0
scalar IntersectionExampleScenario.node[39].nic.mac1609_4 	SentPackets 	0
scalar IntersectionExampleScenario.node[39].nic.mac1609_4 	SNIRLostPackets 	0
scalar IntersectionExampleScenario.node[39].nic.mac1609_4 	RXTXLostPackets 	0
scalar IntersectionExampleScenario.node[39].nic.mac1609_4 	TotalLostPackets 	0
scalar IntersectionExampleScenario.node[39].nic.mac1609_4 	DroppedPacketsInMac 	0
scalar IntersectionExampleScenario.node[39].nic.mac1609_4 	TooLittleTime 	0
scalar IntersectionExampleScenario.node[39].nic.mac1609_4 	TimesIntoBackoff 	0
scalar IntersectionExampleScenario.node[39].nic.mac1609_4 	SlotsBackoff 	0
scalar IntersectionExampleScenario.node[39].nic.mac1609_4 	NumInternalContention 	0
scalar IntersectionExampleScenario.node[39].nic.mac1609_4 	totalBusyTime 	0
scalar IntersectionExampleScenario.node[39].veinsmobility 	startTime 	167.75
scalar IntersectionExampleScenario.node[39].veinsmobility 	totalTime 	52.75
scalar IntersectionExampleScenario.node[39].veinsmobility 	stopTime 	220.75
scalar IntersectionExampleScenario.node[39].veinsmobility 	minSpeed 	0
scalar IntersectionExampleScenario.node[39].veinsmobility 	maxSpeed 	15.375
scalar IntersectionExampleScenario.node[39].veinsmobility 	totalDistance 	549.5277666616
scalar IntersectionExampleScenario.node[39].veinsmobility 	totalCO2Emission 	145.01474487802
scalar IntersectionExampleScenario.node[37].appl 	VehicleRemoved 	0
scalar IntersectionExampleScenario.node[37].appl 	ArrivedAtDest 	1
scalar IntersectionExampleScenario.node[37].appl 	IntersectionEnterTime 	162.75
scalar IntersectionExampleScenario.node[37].appl 	IntersectionExitTime 	202.50988487914
scalar IntersectionExampleScenario.node[37].appl 	NumberOfCollisions 	0
scalar IntersectionExampleScenario.node[37].nic.phy80211p 	busyTime 	0
scalar IntersectionExampleScenario.node[37].nic.mac1609_4 	ReceivedUnicastPackets 	0
scalar IntersectionExampleScenario.node[37].nic.mac1609_4 	ReceivedBroadcasts 	0
scalar IntersectionExampleScenario.node[37].nic.mac1609_4 	SentPackets 	0
scalar IntersectionExampleScenario.node[37].nic.mac1609_4 	SNIRLostPackets 	0
scalar IntersectionExampleScenario.node[37].nic.mac1609_4 	RXTXLostPackets 	0
scalar IntersectionExampleScenario.node[37].nic.mac1609_4 	TotalLostPackets 	0
scalar IntersectionExampleScenario.node[37].nic.mac1609_4 	DroppedPacketsInMac 	0
scalar IntersectionExampleScenario.node[37].nic.mac1609_4 	TooLittleTime 	0
scalar IntersectionExampleScenario.node[37].nic.mac1609_4 	TimesIntoBackoff 	0
scalar IntersectionExampleScenario.node[37].nic.mac1609_4 	SlotsBackoff 	0
[...]
scalar IntersectionExampleScenario.node[499].veinsmobility 	totalCO2Emission 	139.11137008448
scalar IntersectionExampleScenario.node[500].appl 	VehicleRemoved 	0
scalar IntersectionExampleScenario.node[500].appl 	ArrivedAtDest 	0
scalar IntersectionExampleScenario.node[500].appl 	IntersectionEnterTime 	1757
scalar IntersectionExampleScenario.node[500].appl 	IntersectionExitTime 	1786.6073728565
scalar IntersectionExampleScenario.node[500].appl 	NumberOfCollisions 	0
scalar IntersectionExampleScenario.node[500].nic.phy80211p 	busyTime 	0
scalar IntersectionExampleScenario.node[500].nic.mac1609_4 	ReceivedUnicastPackets 	0
scalar IntersectionExampleScenario.node[500].nic.mac1609_4 	ReceivedBroadcasts 	0
scalar IntersectionExampleScenario.node[500].nic.mac1609_4 	SentPackets 	0
scalar IntersectionExampleScenario.node[500].nic.mac1609_4 	SNIRLostPackets 	0
scalar IntersectionExampleScenario.node[500].nic.mac1609_4 	RXTXLostPackets 	0
scalar IntersectionExampleScenario.node[500].nic.mac1609_4 	TotalLostPackets 	0
scalar IntersectionExampleScenario.node[500].nic.mac1609_4 	DroppedPacketsInMac 	0
scalar IntersectionExampleScenario.node[500].nic.mac1609_4 	TooLittleTime 	0
scalar IntersectionExampleScenario.node[500].nic.mac1609_4 	TimesIntoBackoff 	0
scalar IntersectionExampleScenario.node[500].nic.mac1609_4 	SlotsBackoff 	0
scalar IntersectionExampleScenario.node[500].nic.mac1609_4 	NumInternalContention 	0
scalar IntersectionExampleScenario.node[500].nic.mac1609_4 	totalBusyTime 	0
scalar IntersectionExampleScenario.node[500].veinsmobility 	startTime 	1757
scalar IntersectionExampleScenario.node[500].veinsmobility 	totalTime 	43
scalar IntersectionExampleScenario.node[500].veinsmobility 	stopTime 	1800
scalar IntersectionExampleScenario.node[500].veinsmobility 	minSpeed 	5.6500000953674
scalar IntersectionExampleScenario.node[500].veinsmobility 	maxSpeed 	15.875
scalar IntersectionExampleScenario.node[500].veinsmobility 	totalDistance 	523.79025898858
scalar IntersectionExampleScenario.node[500].veinsmobility 	totalCO2Emission 	140.3294075639
scalar IntersectionExampleScenario.node[502].appl 	VehicleRemoved 	0
scalar IntersectionExampleScenario.node[502].appl 	ArrivedAtDest 	0
scalar IntersectionExampleScenario.node[502].appl 	IntersectionEnterTime 	1758
scalar IntersectionExampleScenario.node[502].appl 	IntersectionExitTime 	-1
scalar IntersectionExampleScenario.node[502].appl 	NumberOfCollisions 	0
scalar IntersectionExampleScenario.node[502].nic.phy80211p 	busyTime 	0
scalar IntersectionExampleScenario.node[502].nic.mac1609_4 	ReceivedUnicastPackets 	0
scalar IntersectionExampleScenario.node[502].nic.mac1609_4 	ReceivedBroadcasts 	0
scalar IntersectionExampleScenario.node[502].nic.mac1609_4 	SentPackets 	0
scalar IntersectionExampleScenario.node[502].nic.mac1609_4 	SNIRLostPackets 	0
scalar IntersectionExampleScenario.node[502].nic.mac1609_4 	RXTXLostPackets 	0
scalar IntersectionExampleScenario.node[502].nic.mac1609_4 	TotalLostPackets 	0
scalar IntersectionExampleScenario.node[502].nic.mac1609_4 	DroppedPacketsInMac 	0
scalar IntersectionExampleScenario.node[502].nic.mac1609_4 	TooLittleTime 	0
scalar IntersectionExampleScenario.node[502].nic.mac1609_4 	TimesIntoBackoff 	0
scalar IntersectionExampleScenario.node[502].nic.mac1609_4 	SlotsBackoff 	0
scalar IntersectionExampleScenario.node[502].nic.mac1609_4 	NumInternalContention 	0
scalar IntersectionExampleScenario.node[502].nic.mac1609_4 	totalBusyTime 	0
scalar IntersectionExampleScenario.node[502].veinsmobility 	startTime 	1758
scalar IntersectionExampleScenario.node[502].veinsmobility 	totalTime 	42
scalar IntersectionExampleScenario.node[502].veinsmobility 	stopTime 	1800
scalar IntersectionExampleScenario.node[502].veinsmobility 	minSpeed 	0
scalar IntersectionExampleScenario.node[502].veinsmobility 	maxSpeed 	15.312286376953
scalar IntersectionExampleScenario.node[502].veinsmobility 	totalDistance 	321.57479858398
scalar IntersectionExampleScenario.node[502].veinsmobility 	totalCO2Emission 	95.753720901546
scalar IntersectionExampleScenario.node[503].appl 	VehicleRemoved 	0
scalar IntersectionExampleScenario.node[503].appl 	ArrivedAtDest 	0
scalar IntersectionExampleScenario.node[503].appl 	IntersectionEnterTime 	1763.25
scalar IntersectionExampleScenario.node[503].appl 	IntersectionExitTime 	-1
scalar IntersectionExampleScenario.node[503].appl 	NumberOfCollisions 	0
scalar IntersectionExampleScenario.node[503].nic.phy80211p 	busyTime 	0
scalar IntersectionExampleScenario.node[503].nic.mac1609_4 	ReceivedUnicastPackets 	0
scalar IntersectionExampleScenario.node[503].nic.mac1609_4 	ReceivedBroadcasts 	0
scalar IntersectionExampleScenario.node[503].nic.mac1609_4 	SentPackets 	0
scalar IntersectionExampleScenario.node[503].nic.mac1609_4 	SNIRLostPackets 	0
scalar IntersectionExampleScenario.node[503].nic.mac1609_4 	RXTXLostPackets 	0
scalar IntersectionExampleScenario.node[503].nic.mac1609_4 	TotalLostPackets 	0
scalar IntersectionExampleScenario.node[503].nic.mac1609_4 	DroppedPacketsInMac 	0
scalar IntersectionExampleScenario.node[503].nic.mac1609_4 	TooLittleTime 	0
scalar IntersectionExampleScenario.node[503].nic.mac1609_4 	TimesIntoBackoff 	0
scalar IntersectionExampleScenario.node[503].nic.mac1609_4 	SlotsBackoff 	0
scalar IntersectionExampleScenario.node[503].nic.mac1609_4 	NumInternalContention 	0
scalar IntersectionExampleScenario.node[503].nic.mac1609_4 	totalBusyTime 	0
scalar IntersectionExampleScenario.node[503].veinsmobility 	startTime 	1763.25
scalar IntersectionExampleScenario.node[503].veinsmobility 	totalTime 	36.75
scalar IntersectionExampleScenario.node[503].veinsmobility 	stopTime 	1800
scalar IntersectionExampleScenario.node[503].veinsmobility 	minSpeed 	0
scalar IntersectionExampleScenario.node[503].veinsmobility 	maxSpeed 	16.27499961853
scalar IntersectionExampleScenario.node[503].veinsmobility 	totalDistance 	284.38312530518
scalar IntersectionExampleScenario.node[503].veinsmobility 	totalCO2Emission 	81.16302087444
scalar IntersectionExampleScenario.node[504].appl 	VehicleRemoved 	0
scalar IntersectionExampleScenario.node[504].appl 	ArrivedAtDest 	0
scalar IntersectionExampleScenario.node[504].appl 	IntersectionEnterTime 	1763.75
scalar IntersectionExampleScenario.node[504].appl 	IntersectionExitTime 	1789.0451560463
scalar IntersectionExampleScenario.node[504].appl 	NumberOfCollisions 	0
scalar IntersectionExampleScenario.node[504].nic.phy80211p 	busyTime 	0
scalar IntersectionExampleScenario.node[504].nic.mac1609_4 	ReceivedUnicastPackets 	0
scalar IntersectionExampleScenario.node[504].nic.mac1609_4 	ReceivedBroadcasts 	0
scalar IntersectionExampleScenario.node[504].nic.mac1609_4 	SentPackets 	0
scalar IntersectionExampleScenario.node[504].nic.mac1609_4 	SNIRLostPackets 	0
scalar IntersectionExampleScenario.node[504].nic.mac1609_4 	RXTXLostPackets 	0
scalar IntersectionExampleScenario.node[504].nic.mac1609_4 	TotalLostPackets 	0
scalar IntersectionExampleScenario.node[504].nic.mac1609_4 	DroppedPacketsInMac 	0
scalar IntersectionExampleScenario.node[504].nic.mac1609_4 	TooLittleTime 	0
scalar IntersectionExampleScenario.node[504].nic.mac1609_4 	TimesIntoBackoff 	0
scalar IntersectionExampleScenario.node[504].nic.mac1609_4 	SlotsBackoff 	0
scalar IntersectionExampleScenario.node[504].nic.mac1609_4 	NumInternalContention 	0
scalar IntersectionExampleScenario.node[504].nic.mac1609_4 	totalBusyTime 	0
scalar IntersectionExampleScenario.node[504].veinsmobility 	startTime 	1763.75
scalar IntersectionExampleScenario.node[504].veinsmobility 	totalTime 	36.25
scalar IntersectionExampleScenario.node[504].veinsmobility 	stopTime 	1800
scalar IntersectionExampleScenario.node[504].veinsmobility 	minSpeed 	5.2898550033569
scalar IntersectionExampleScenario.node[504].veinsmobility 	maxSpeed 	15.426557540894
scalar IntersectionExampleScenario.node[504].veinsmobility 	totalDistance 	473.05637359619
scalar IntersectionExampleScenario.node[504].veinsmobility 	totalCO2Emission 	119.60836644054
scalar IntersectionExampleScenario.node[505].appl 	VehicleRemoved 	0
scalar IntersectionExampleScenario.node[505].appl 	ArrivedAtDest 	0
scalar IntersectionExampleScenario.node[505].appl 	IntersectionEnterTime 	1768.25
scalar IntersectionExampleScenario.node[505].appl 	IntersectionExitTime 	-1
scalar IntersectionExampleScenario.node[505].appl 	NumberOfCollisions 	0
scalar IntersectionExampleScenario.node[505].nic.phy80211p 	busyTime 	0
scalar IntersectionExampleScenario.node[505].nic.mac1609_4 	ReceivedUnicastPackets 	0
scalar IntersectionExampleScenario.node[505].nic.mac1609_4 	ReceivedBroadcasts 	0
scalar IntersectionExampleScenario.node[505].nic.mac1609_4 	SentPackets 	0
scalar IntersectionExampleScenario.node[505].nic.mac1609_4 	SNIRLostPackets 	0
scalar IntersectionExampleScenario.node[505].nic.mac1609_4 	RXTXLostPackets 	0
scalar IntersectionExampleScenario.node[505].nic.mac1609_4 	TotalLostPackets 	0
scalar IntersectionExampleScenario.node[505].nic.mac1609_4 	DroppedPacketsInMac 	0
scalar IntersectionExampleScenario.node[505].nic.mac1609_4 	TooLittleTime 	0
scalar IntersectionExampleScenario.node[505].nic.mac1609_4 	TimesIntoBackoff 	0
scalar IntersectionExampleScenario.node[505].nic.mac1609_4 	SlotsBackoff 	0
scalar IntersectionExampleScenario.node[505].nic.mac1609_4 	NumInternalContention 	0
scalar IntersectionExampleScenario.node[505].nic.mac1609_4 	totalBusyTime 	0
scalar IntersectionExampleScenario.node[505].veinsmobility 	startTime 	1768.25
scalar IntersectionExampleScenario.node[505].veinsmobility 	totalTime 	31.75
scalar IntersectionExampleScenario.node[505].veinsmobility 	stopTime 	1800
scalar IntersectionExampleScenario.node[505].veinsmobility 	minSpeed 	0
scalar IntersectionExampleScenario.node[505].veinsmobility 	maxSpeed 	15.632042884827
scalar IntersectionExampleScenario.node[505].veinsmobility 	totalDistance 	280.79565429688
scalar IntersectionExampleScenario.node[505].veinsmobility 	totalCO2Emission 	77.178839102885
scalar IntersectionExampleScenario.node[506].appl 	VehicleRemoved 	0
scalar IntersectionExampleScenario.node[506].appl 	ArrivedAtDest 	0
scalar IntersectionExampleScenario.node[506].appl 	IntersectionEnterTime 	1772.25
scalar IntersectionExampleScenario.node[506].appl 	IntersectionExitTime 	1796.5145736624
scalar IntersectionExampleScenario.node[506].appl 	NumberOfCollisions 	0
scalar IntersectionExampleScenario.node[506].nic.phy80211p 	busyTime 	0
scalar IntersectionExampleScenario.node[506].nic.mac1609_4 	ReceivedUnicastPackets 	0
scalar IntersectionExampleScenario.node[506].nic.mac1609_4 	ReceivedBroadcasts 	0
scalar IntersectionExampleScenario.node[506].nic.mac1609_4 	SentPackets 	0
scalar IntersectionExampleScenario.node[506].nic.mac1609_4 	SNIRLostPackets 	0
scalar IntersectionExampleScenario.node[506].nic.mac1609_4 	RXTXLostPackets 	0
scalar IntersectionExampleScenario.node[506].nic.mac1609_4 	TotalLostPackets 	0
scalar IntersectionExampleScenario.node[506].nic.mac1609_4 	DroppedPacketsInMac 	0
scalar IntersectionExampleScenario.node[506].nic.mac1609_4 	TooLittleTime 	0
scalar IntersectionExampleScenario.node[506].nic.mac1609_4 	TimesIntoBackoff 	0
scalar IntersectionExampleScenario.node[506].nic.mac1609_4 	SlotsBackoff 	0
scalar IntersectionExampleScenario.node[506].nic.mac1609_4 	NumInternalContention 	0
scalar IntersectionExampleScenario.node[506].nic.mac1609_4 	totalBusyTime 	0
scalar IntersectionExampleScenario.node[506].veinsmobility 	startTime 	1772.25
scalar IntersectionExampleScenario.node[506].veinsmobility 	totalTime 	27.75
scalar IntersectionExampleScenario.node[506].veinsmobility 	stopTime 	1800
scalar IntersectionExampleScenario.node[506].veinsmobility 	minSpeed 	5.6500000953674
scalar IntersectionExampleScenario.node[506].veinsmobility 	maxSpeed 	15.02499961853
scalar IntersectionExampleScenario.node[506].veinsmobility 	totalDistance 	343.90839882552
scalar IntersectionExampleScenario.node[506].veinsmobility 	totalCO2Emission 	93.652860722197
scalar IntersectionExampleScenario.node[507].appl 	VehicleRemoved 	0
scalar IntersectionExampleScenario.node[507].appl 	ArrivedAtDest 	0
scalar IntersectionExampleScenario.node[507].appl 	IntersectionEnterTime 	1781
scalar IntersectionExampleScenario.node[507].appl 	IntersectionExitTime 	-1
scalar IntersectionExampleScenario.node[507].appl 	NumberOfCollisions 	0
scalar IntersectionExampleScenario.node[507].nic.phy80211p 	busyTime 	0
scalar IntersectionExampleScenario.node[507].nic.mac1609_4 	ReceivedUnicastPackets 	0
scalar IntersectionExampleScenario.node[507].nic.mac1609_4 	ReceivedBroadcasts 	0
scalar IntersectionExampleScenario.node[507].nic.mac1609_4 	SentPackets 	0
scalar IntersectionExampleScenario.node[507].nic.mac1609_4 	SNIRLostPackets 	0
scalar IntersectionExampleScenario.node[507].nic.mac1609_4 	RXTXLostPackets 	0
scalar IntersectionExampleScenario.node[507].nic.mac1609_4 	TotalLostPackets 	0
scalar IntersectionExampleScenario.node[507].nic.mac1609_4 	DroppedPacketsInMac 	0
scalar IntersectionExampleScenario.node[507].nic.mac1609_4 	TooLittleTime 	0
scalar IntersectionExampleScenario.node[507].nic.mac1609_4 	TimesIntoBackoff 	0
scalar IntersectionExampleScenario.node[507].nic.mac1609_4 	SlotsBackoff 	0
scalar IntersectionExampleScenario.node[507].nic.mac1609_4 	NumInternalContention 	0
scalar IntersectionExampleScenario.node[507].nic.mac1609_4 	totalBusyTime 	0
scalar IntersectionExampleScenario.node[507].veinsmobility 	startTime 	1781
scalar IntersectionExampleScenario.node[507].veinsmobility 	totalTime 	19
scalar IntersectionExampleScenario.node[507].veinsmobility 	stopTime 	1800
scalar IntersectionExampleScenario.node[507].veinsmobility 	minSpeed 	5.6500000953674
scalar IntersectionExampleScenario.node[507].veinsmobility 	maxSpeed 	16.38796043396
scalar IntersectionExampleScenario.node[507].veinsmobility 	totalDistance 	246.05554199219
scalar IntersectionExampleScenario.node[507].veinsmobility 	totalCO2Emission 	61.449570365945
scalar IntersectionExampleScenario.node[508].appl 	VehicleRemoved 	0
scalar IntersectionExampleScenario.node[508].appl 	ArrivedAtDest 	0
scalar IntersectionExampleScenario.node[508].appl 	IntersectionEnterTime 	1781.5
scalar IntersectionExampleScenario.node[508].appl 	IntersectionExitTime 	-1
scalar IntersectionExampleScenario.node[508].appl 	NumberOfCollisions 	0
scalar IntersectionExampleScenario.node[508].nic.phy80211p 	busyTime 	0
scalar IntersectionExampleScenario.node[508].nic.mac1609_4 	ReceivedUnicastPackets 	0
scalar IntersectionExampleScenario.node[508].nic.mac1609_4 	ReceivedBroadcasts 	0
scalar IntersectionExampleScenario.node[508].nic.mac1609_4 	SentPackets 	0
scalar IntersectionExampleScenario.node[508].nic.mac1609_4 	SNIRLostPackets 	0
scalar IntersectionExampleScenario.node[508].nic.mac1609_4 	RXTXLostPackets 	0
scalar IntersectionExampleScenario.node[508].nic.mac1609_4 	TotalLostPackets 	0
scalar IntersectionExampleScenario.node[508].nic.mac1609_4 	DroppedPacketsInMac 	0
scalar IntersectionExampleScenario.node[508].nic.mac1609_4 	TooLittleTime 	0
scalar IntersectionExampleScenario.node[508].nic.mac1609_4 	TimesIntoBackoff 	0
scalar IntersectionExampleScenario.node[508].nic.mac1609_4 	SlotsBackoff 	0
scalar IntersectionExampleScenario.node[508].nic.mac1609_4 	NumInternalContention 	0
scalar IntersectionExampleScenario.node[508].nic.mac1609_4 	totalBusyTime 	0
scalar IntersectionExampleScenario.node[508].veinsmobility 	startTime 	1781.5
scalar IntersectionExampleScenario.node[508].veinsmobility 	totalTime 	18.5
scalar IntersectionExampleScenario.node[508].veinsmobility 	stopTime 	1800
scalar IntersectionExampleScenario.node[508].veinsmobility 	minSpeed 	5.6500000953674
scalar IntersectionExampleScenario.node[508].veinsmobility 	maxSpeed 	15.220597267151
scalar IntersectionExampleScenario.node[508].veinsmobility 	totalDistance 	244.33715820312
scalar IntersectionExampleScenario.node[508].veinsmobility 	totalCO2Emission 	57.312802859207
scalar IntersectionExampleScenario.node[509].appl 	VehicleRemoved 	0
scalar IntersectionExampleScenario.node[509].appl 	ArrivedAtDest 	0
scalar IntersectionExampleScenario.node[509].appl 	IntersectionEnterTime 	1783.25
scalar IntersectionExampleScenario.node[509].appl 	IntersectionExitTime 	-1
scalar IntersectionExampleScenario.node[509].appl 	NumberOfCollisions 	0
scalar IntersectionExampleScenario.node[509].nic.phy80211p 	busyTime 	0
scalar IntersectionExampleScenario.node[509].nic.mac1609_4 	ReceivedUnicastPackets 	0
scalar IntersectionExampleScenario.node[509].nic.mac1609_4 	ReceivedBroadcasts 	0
scalar IntersectionExampleScenario.node[509].nic.mac1609_4 	SentPackets 	0
scalar IntersectionExampleScenario.node[509].nic.mac1609_4 	SNIRLostPackets 	0
scalar IntersectionExampleScenario.node[509].nic.mac1609_4 	RXTXLostPackets 	0
scalar IntersectionExampleScenario.node[509].nic.mac1609_4 	TotalLostPackets 	0
scalar IntersectionExampleScenario.node[509].nic.mac1609_4 	DroppedPacketsInMac 	0
scalar IntersectionExampleScenario.node[509].nic.mac1609_4 	TooLittleTime 	0
scalar IntersectionExampleScenario.node[509].nic.mac1609_4 	TimesIntoBackoff 	0
scalar IntersectionExampleScenario.node[509].nic.mac1609_4 	SlotsBackoff 	0
scalar IntersectionExampleScenario.node[509].nic.mac1609_4 	NumInternalContention 	0
scalar IntersectionExampleScenario.node[509].nic.mac1609_4 	totalBusyTime 	0
scalar IntersectionExampleScenario.node[509].veinsmobility 	startTime 	1783.25
scalar IntersectionExampleScenario.node[509].veinsmobility 	totalTime 	16.75
scalar IntersectionExampleScenario.node[509].veinsmobility 	stopTime 	1800
scalar IntersectionExampleScenario.node[509].veinsmobility 	minSpeed 	5.6500000953674
scalar IntersectionExampleScenario.node[509].veinsmobility 	maxSpeed 	15.64999961853
scalar IntersectionExampleScenario.node[509].veinsmobility 	totalDistance 	228.61823272705
scalar IntersectionExampleScenario.node[509].veinsmobility 	totalCO2Emission 	68.200735377918
scalar IntersectionExampleScenario.node[510].appl 	VehicleRemoved 	0
scalar IntersectionExampleScenario.node[510].appl 	ArrivedAtDest 	0
scalar IntersectionExampleScenario.node[510].appl 	IntersectionEnterTime 	1796.75
scalar IntersectionExampleScenario.node[510].appl 	IntersectionExitTime 	-1
scalar IntersectionExampleScenario.node[510].appl 	NumberOfCollisions 	0
scalar IntersectionExampleScenario.node[510].nic.phy80211p 	busyTime 	0
scalar IntersectionExampleScenario.node[510].nic.mac1609_4 	ReceivedUnicastPackets 	0
scalar IntersectionExampleScenario.node[510].nic.mac1609_4 	ReceivedBroadcasts 	0
scalar IntersectionExampleScenario.node[510].nic.mac1609_4 	SentPackets 	0
scalar IntersectionExampleScenario.node[510].nic.mac1609_4 	SNIRLostPackets 	0
scalar IntersectionExampleScenario.node[510].nic.mac1609_4 	RXTXLostPackets 	0
scalar IntersectionExampleScenario.node[510].nic.mac1609_4 	TotalLostPackets 	0
scalar IntersectionExampleScenario.node[510].nic.mac1609_4 	DroppedPacketsInMac 	0
scalar IntersectionExampleScenario.node[510].nic.mac1609_4 	TooLittleTime 	0
scalar IntersectionExampleScenario.node[510].nic.mac1609_4 	TimesIntoBackoff 	0
scalar IntersectionExampleScenario.node[510].nic.mac1609_4 	SlotsBackoff 	0
scalar IntersectionExampleScenario.node[510].nic.mac1609_4 	NumInternalContention 	0
scalar IntersectionExampleScenario.node[510].nic.mac1609_4 	totalBusyTime 	0
scalar IntersectionExampleScenario.node[510].veinsmobility 	startTime 	1796.75
scalar IntersectionExampleScenario.node[510].veinsmobility 	totalTime 	3.25
scalar IntersectionExampleScenario.node[510].veinsmobility 	stopTime 	1800
scalar IntersectionExampleScenario.node[510].veinsmobility 	minSpeed 	5.6500000953674
scalar IntersectionExampleScenario.node[510].veinsmobility 	maxSpeed 	13.14999961853
scalar IntersectionExampleScenario.node[510].veinsmobility 	totalDistance 	29.534370422363
scalar IntersectionExampleScenario.node[510].veinsmobility 	totalCO2Emission 	22.582438530969
