file 30590877 1591392435                                        
version 2
run nodebug-26-20200605-17:21:30-20012
attr configname nodebug
attr datetime 20200605-17:21:30
attr experiment nodebug
attr inifile omnetpp.ini
attr iterationvars ""
attr iterationvars2 $repetition=26
attr measurement ""
attr network "\"org.car2x.veins.modules.application.ExtTraCIScenarioManagerLaunchd.IntersectionExampleScenario\""
attr processid 20012
attr repetition 26
attr replication #26
attr resultdir results
attr runnumber 26
attr seedset 26
param **.coreDebug false
param **.debug false
param *.**.nic.mac1609_4.bitrate 18Mbps
param *.**.nic.mac1609_4.txPower 20mW
param *.**.nic.mac1609_4.useServiceChannel false
param *.**.nic.phy80211p.analogueModels "xmldoc(\"config.xml\")"
param *.**.nic.phy80211p.decider "xmldoc(\"config.xml\")"
param *.**.nic.phy80211p.sensitivity -89dBm
param *.**.nic.phy80211p.thermalNoise -110dBm
param *.**.nic.phy80211p.usePropagationDelay true
param *.**.nic.phy80211p.useThermalNoise true
param *.annotations.draw false
param *.connectionManager.alpha 2.0
param *.connectionManager.carrierFrequency "5.890e9 Hz"
param *.connectionManager.pMax 20mW
param *.connectionManager.sat -89dBm
param *.connectionManager.sendDirect true
param *.manager.autoShutdown true
param *.manager.host "\"localhost\""
param *.manager.launchConfig "xmldoc(\"paramics.launchd.xml\")"
param *.manager.margin 25
param *.manager.moduleDisplayString "\"\""
param *.manager.moduleName "\"node\""
param *.manager.moduleType "\"org.car2x.veins.nodes.Car\""
param *.manager.port 9999
param *.manager.updateInterval 250ms
param *.node[*0].veinsmobility.accidentCount 0
param *.node[*0].veinsmobility.accidentDuration 30s
param *.node[*0].veinsmobility.accidentStart 75s
param *.node[*].appl.LiderSelectZoneRadio 55.0
param *.node[*].appl.ShareDataZoneRadio 110.0
param *.node[*].appl.TiempoSemaforo 30.0
param *.node[*].appl.beaconInterval 1s
param *.node[*].appl.beaconPriority 3
param *.node[*].appl.dataOnSch false
param *.node[*].appl.dataPriority 2
param *.node[*].appl.debug false
param *.node[*].appl.headerLength "256 bit"
param *.node[*].appl.maxOffset 0.005s
param *.node[*].appl.sendBeacons false
param *.node[*].appl.sendData true
param *.node[*].applType "\"Dummy\""
param *.node[*].mobilityType "\"TraCIMobility\""
param *.node[*].mobilityType.debug true
param *.node[*].veinsmobility.x 0
param *.node[*].veinsmobility.y 0
param *.node[*].veinsmobility.z 1.895
param *.node[*].veinsmobilityType "\"org.car2x.veins.modules.mobility.traci.TraCIMobility\""
param *.node[*].veinsmobilityType.debug true
param *.playgroundSizeX 8500m
param *.playgroundSizeY 8500m
param *.playgroundSizeZ 50m
param *.world.use2D false
param *.world.useTorus false

vector 36900  IntersectionExampleScenario.manager  vehiclesinsim  ETV
attr type  int
vector 36901  IntersectionExampleScenario.manager  realtime  ETV
attr type  int
attr unit  s
vector 36904  IntersectionExampleScenario.node[0].veinsmobility  posx  ETV
vector 36905  IntersectionExampleScenario.node[0].veinsmobility  posy  ETV
vector 36906  IntersectionExampleScenario.node[0].veinsmobility  speed  ETV
vector 36907  IntersectionExampleScenario.node[0].veinsmobility  acceleration  ETV
vector 36908  IntersectionExampleScenario.node[0].veinsmobility  co2emission  ETV
vector 36911  IntersectionExampleScenario.node[1].veinsmobility  posx  ETV
vector 36912  IntersectionExampleScenario.node[1].veinsmobility  posy  ETV
vector 36913  IntersectionExampleScenario.node[1].veinsmobility  speed  ETV
vector 36914  IntersectionExampleScenario.node[1].veinsmobility  acceleration  ETV
vector 36915  IntersectionExampleScenario.node[1].veinsmobility  co2emission  ETV
vector 36918  IntersectionExampleScenario.node[2].veinsmobility  posx  ETV
vector 36919  IntersectionExampleScenario.node[2].veinsmobility  posy  ETV
vector 36920  IntersectionExampleScenario.node[2].veinsmobility  speed  ETV
vector 36921  IntersectionExampleScenario.node[2].veinsmobility  acceleration  ETV
vector 36922  IntersectionExampleScenario.node[2].veinsmobility  co2emission  ETV
vector 36925  IntersectionExampleScenario.node[3].veinsmobility  posx  ETV
vector 36926  IntersectionExampleScenario.node[3].veinsmobility  posy  ETV
vector 36927  IntersectionExampleScenario.node[3].veinsmobility  speed  ETV
vector 36928  IntersectionExampleScenario.node[3].veinsmobility  acceleration  ETV
vector 36929  IntersectionExampleScenario.node[3].veinsmobility  co2emission  ETV
vector 36932  IntersectionExampleScenario.node[4].veinsmobility  posx  ETV
vector 36933  IntersectionExampleScenario.node[4].veinsmobility  posy  ETV
vector 36934  IntersectionExampleScenario.node[4].veinsmobility  speed  ETV
vector 36935  IntersectionExampleScenario.node[4].veinsmobility  acceleration  ETV
vector 36936  IntersectionExampleScenario.node[4].veinsmobility  co2emission  ETV
vector 36939  IntersectionExampleScenario.node[5].veinsmobility  posx  ETV
vector 36940  IntersectionExampleScenario.node[5].veinsmobility  posy  ETV
vector 36946  IntersectionExampleScenario.node[6].veinsmobility  posx  ETV
vector 36947  IntersectionExampleScenario.node[6].veinsmobility  posy  ETV
vector 36941  IntersectionExampleScenario.node[5].veinsmobility  speed  ETV
vector 36948  IntersectionExampleScenario.node[6].veinsmobility  speed  ETV
vector 36942  IntersectionExampleScenario.node[5].veinsmobility  acceleration  ETV
vector 36943  IntersectionExampleScenario.node[5].veinsmobility  co2emission  ETV
vector 36949  IntersectionExampleScenario.node[6].veinsmobility  acceleration  ETV
vector 36950  IntersectionExampleScenario.node[6].veinsmobility  co2emission  ETV
vector 36953  IntersectionExampleScenario.node[7].veinsmobility  posx  ETV
vector 36954  IntersectionExampleScenario.node[7].veinsmobility  posy  ETV
vector 36955  IntersectionExampleScenario.node[7].veinsmobility  speed  ETV
vector 36956  IntersectionExampleScenario.node[7].veinsmobility  acceleration  ETV
vector 36957  IntersectionExampleScenario.node[7].veinsmobility  co2emission  ETV
vector 36960  IntersectionExampleScenario.node[8].veinsmobility  posx  ETV
vector 36961  IntersectionExampleScenario.node[8].veinsmobility  posy  ETV
vector 36967  IntersectionExampleScenario.node[9].veinsmobility  posx  ETV
vector 36968  IntersectionExampleScenario.node[9].veinsmobility  posy  ETV
vector 36962  IntersectionExampleScenario.node[8].veinsmobility  speed  ETV
vector 36963  IntersectionExampleScenario.node[8].veinsmobility  acceleration  ETV
vector 36964  IntersectionExampleScenario.node[8].veinsmobility  co2emission  ETV
vector 36969  IntersectionExampleScenario.node[9].veinsmobility  speed  ETV
vector 36970  IntersectionExampleScenario.node[9].veinsmobility  acceleration  ETV
vector 36971  IntersectionExampleScenario.node[9].veinsmobility  co2emission  ETV
vector 36974  IntersectionExampleScenario.node[10].veinsmobility  posx  ETV
vector 36975  IntersectionExampleScenario.node[10].veinsmobility  posy  ETV
vector 36976  IntersectionExampleScenario.node[10].veinsmobility  speed  ETV
vector 36977  IntersectionExampleScenario.node[10].veinsmobility  acceleration  ETV
vector 36978  IntersectionExampleScenario.node[10].veinsmobility  co2emission  ETV
vector 36981  IntersectionExampleScenario.node[11].veinsmobility  posx  ETV
vector 36982  IntersectionExampleScenario.node[11].veinsmobility  posy  ETV
vector 36983  IntersectionExampleScenario.node[11].veinsmobility  speed  ETV
vector 36984  IntersectionExampleScenario.node[11].veinsmobility  acceleration  ETV
vector 36985  IntersectionExampleScenario.node[11].veinsmobility  co2emission  ETV
vector 36988  IntersectionExampleScenario.node[12].veinsmobility  posx  ETV
vector 36989  IntersectionExampleScenario.node[12].veinsmobility  posy  ETV
vector 36990  IntersectionExampleScenario.node[12].veinsmobility  speed  ETV
vector 36991  IntersectionExampleScenario.node[12].veinsmobility  acceleration  ETV
vector 36992  IntersectionExampleScenario.node[12].veinsmobility  co2emission  ETV
vector 36995  IntersectionExampleScenario.node[13].veinsmobility  posx  ETV
vector 36996  IntersectionExampleScenario.node[13].veinsmobility  posy  ETV
vector 36997  IntersectionExampleScenario.node[13].veinsmobility  speed  ETV
vector 36998  IntersectionExampleScenario.node[13].veinsmobility  acceleration  ETV
vector 36999  IntersectionExampleScenario.node[13].veinsmobility  co2emission  ETV
vector 37002  IntersectionExampleScenario.node[14].veinsmobility  posx  ETV
vector 37003  IntersectionExampleScenario.node[14].veinsmobility  posy  ETV
vector 37004  IntersectionExampleScenario.node[14].veinsmobility  speed  ETV
vector 37009  IntersectionExampleScenario.node[15].veinsmobility  posx  ETV
vector 37010  IntersectionExampleScenario.node[15].veinsmobility  posy  ETV
vector 37005  IntersectionExampleScenario.node[14].veinsmobility  acceleration  ETV
vector 37006  IntersectionExampleScenario.node[14].veinsmobility  co2emission  ETV
vector 37011  IntersectionExampleScenario.node[15].veinsmobility  speed  ETV
vector 37016  IntersectionExampleScenario.node[16].veinsmobility  posx  ETV
vector 37017  IntersectionExampleScenario.node[16].veinsmobility  posy  ETV
vector 37012  IntersectionExampleScenario.node[15].veinsmobility  acceleration  ETV
vector 37013  IntersectionExampleScenario.node[15].veinsmobility  co2emission  ETV
vector 37023  IntersectionExampleScenario.node[17].veinsmobility  posx  ETV
vector 37024  IntersectionExampleScenario.node[17].veinsmobility  posy  ETV
vector 37018  IntersectionExampleScenario.node[16].veinsmobility  speed  ETV
vector 37019  IntersectionExampleScenario.node[16].veinsmobility  acceleration  ETV
vector 37020  IntersectionExampleScenario.node[16].veinsmobility  co2emission  ETV
vector 37025  IntersectionExampleScenario.node[17].veinsmobility  speed  ETV
vector 37026  IntersectionExampleScenario.node[17].veinsmobility  acceleration  ETV
vector 37027  IntersectionExampleScenario.node[17].veinsmobility  co2emission  ETV
vector 37030  IntersectionExampleScenario.node[18].veinsmobility  posx  ETV
vector 37031  IntersectionExampleScenario.node[18].veinsmobility  posy  ETV
vector 37032  IntersectionExampleScenario.node[18].veinsmobility  speed  ETV
vector 37033  IntersectionExampleScenario.node[18].veinsmobility  acceleration  ETV
vector 37034  IntersectionExampleScenario.node[18].veinsmobility  co2emission  ETV
vector 37037  IntersectionExampleScenario.node[19].veinsmobility  posx  ETV
vector 37038  IntersectionExampleScenario.node[19].veinsmobility  posy  ETV
vector 37039  IntersectionExampleScenario.node[19].veinsmobility  speed  ETV
vector 37040  IntersectionExampleScenario.node[19].veinsmobility  acceleration  ETV
vector 37041  IntersectionExampleScenario.node[19].veinsmobility  co2emission  ETV
vector 37044  IntersectionExampleScenario.node[20].veinsmobility  posx  ETV
vector 37045  IntersectionExampleScenario.node[20].veinsmobility  posy  ETV
vector 37046  IntersectionExampleScenario.node[20].veinsmobility  speed  ETV
vector 37047  IntersectionExampleScenario.node[20].veinsmobility  acceleration  ETV
vector 37048  IntersectionExampleScenario.node[20].veinsmobility  co2emission  ETV
36922	11307 4771 149 3833 8.5 46.25 152 0.90753377507377 12.553400930962 537.98992872328 3322.6090630191
36921	16078 4432 149 3833 8.5 46.25 152 -3.3779525756836 2.5 43.094457626343 315.51276970265
36920	20510 4642 142 3833 8.25 46.25 153 5.6500000953674 16.89999961853 2184.2547855377 32981.487359701
36919	25152 4975 135 3833 8 46.25 154 184.17810058594 483.14999389648 61189.859588623 25998281.269535
36918	30127 5004 135 3833 8 46.25 154 486.85000610352 733.03802490234 82610.19821167 45180752.364805
vector 37051  IntersectionExampleScenario.node[21].veinsmobility  posx  ETV
vector 37052  IntersectionExampleScenario.node[21].veinsmobility  posy  ETV
vector 37053  IntersectionExampleScenario.node[21].veinsmobility  speed  ETV
vector 37054  IntersectionExampleScenario.node[21].veinsmobility  acceleration  ETV
vector 37055  IntersectionExampleScenario.node[21].veinsmobility  co2emission  ETV
36929	35532 5168 202 4569 10.25 51 164 0.973 11.36141391502 494.36767332019 2585.8876772932
36928	40700 4843 202 4569 10.25 51 164 -3.4579658508301 2.5 36.134572982788 269.53427125852
36927	45543 5062 193 4569 10 51 165 5.6500000953674 15.25 2188.876291275 30212.633535526
36926	50605 5408 184 4569 9.75 51 166 486.85000610352 785.82187652588 94960.185188293 56099715.314936
36925	56013 5412 184 4569 9.75 51 166 235.37481689453 483.14999389648 71629.266601562 31878679.691959
vector 37058  IntersectionExampleScenario.node[22].veinsmobility  posx  ETV
vector 37059  IntersectionExampleScenario.node[22].veinsmobility  posy  ETV
vector 37060  IntersectionExampleScenario.node[22].veinsmobility  speed  ETV
vector 37061  IntersectionExampleScenario.node[22].veinsmobility  acceleration  ETV
vector 37062  IntersectionExampleScenario.node[22].veinsmobility  co2emission  ETV
vector 37065  IntersectionExampleScenario.node[23].veinsmobility  posx  ETV
vector 37066  IntersectionExampleScenario.node[23].veinsmobility  posy  ETV
vector 37067  IntersectionExampleScenario.node[23].veinsmobility  speed  ETV
vector 37068  IntersectionExampleScenario.node[23].veinsmobility  acceleration  ETV
vector 37069  IntersectionExampleScenario.node[23].veinsmobility  co2emission  ETV
36943	62227 5255 470 5485 16.25 57.25 165 0.973 11.200708441096 489.53123084703 2471.7711966845
36942	67482 4717 470 5485 16.25 57.25 165 -3.5762786865234 2.5 35.455564498901 261.22151650358
36941	72199 5156 455 5485 16 57.25 166 5.6500000953674 15.02499961853 2187.5217628479 29919.224123365
36940	77355 5451 440 5485 15.75 57.25 167 184.17810058594 483.32922363281 66449.597473145 28225566.674603
36939	82806 5471 440 5485 15.75 57.25 167 486.85000610352 734.1283416748 89937.700820923 49410720.855207
vector 37072  IntersectionExampleScenario.node[24].veinsmobility  posx  ETV
vector 37073  IntersectionExampleScenario.node[24].veinsmobility  posy  ETV
vector 37074  IntersectionExampleScenario.node[24].veinsmobility  speed  ETV
vector 37075  IntersectionExampleScenario.node[24].veinsmobility  acceleration  ETV
vector 37076  IntersectionExampleScenario.node[24].veinsmobility  co2emission  ETV
vector 37079  IntersectionExampleScenario.node[25].veinsmobility  posx  ETV
vector 37080  IntersectionExampleScenario.node[25].veinsmobility  posy  ETV
vector 37081  IntersectionExampleScenario.node[25].veinsmobility  speed  ETV
vector 37082  IntersectionExampleScenario.node[25].veinsmobility  acceleration  ETV
vector 37083  IntersectionExampleScenario.node[25].veinsmobility  co2emission  ETV
vector 37086  IntersectionExampleScenario.node[26].veinsmobility  posx  ETV
vector 37087  IntersectionExampleScenario.node[26].veinsmobility  posy  ETV
vector 37088  IntersectionExampleScenario.node[26].veinsmobility  speed  ETV
36908	89311 7539 8 7055 0.75 67.75 269 0.973 11.200708441096 615.72245879132 2710.3798428201
36907	96850 6635 8 7055 0.75 67.75 269 -8.6544361114502 4 35.795072555542 473.04944408425
36906	103485 7078 5 7055 0.5 67.75 270 0 15.02499961853 2171.2275187969 29467.158472319
36905	110563 8724 2 7055 0.25 67.75 271 238.08221435547 483.14999389648 122492.88781738 56480320.696848
36904	119287 8769 2 7055 0.25 67.75 271 184.17810058594 483.36395263672 115497.55227661 51350739.201014
vector 37089  IntersectionExampleScenario.node[26].veinsmobility  acceleration  ETV
vector 37090  IntersectionExampleScenario.node[26].veinsmobility  co2emission  ETV
vector 37093  IntersectionExampleScenario.node[27].veinsmobility  posx  ETV
vector 37094  IntersectionExampleScenario.node[27].veinsmobility  posy  ETV
vector 37095  IntersectionExampleScenario.node[27].veinsmobility  speed  ETV
vector 37096  IntersectionExampleScenario.node[27].veinsmobility  acceleration  ETV
vector 37097  IntersectionExampleScenario.node[27].veinsmobility  co2emission  ETV
36950	128626 6436 470 7338 16.25 69.5 214 0.973 10.756497587458 540.91196920244 2425.6006078169
36949	135062 6428 470 7338 16.25 69.5 214 -3.946576833725 2.5 34.267293930054 306.37053919614
36948	141490 6930 455 7338 16 69.5 215 0 14.39999961853 2218.855836343 28124.162008115
36947	148420 7099 440 7338 15.75 69.5 216 483.14999389648 483.14999389648 104360.39868164 50421725.986069
36946	155519 7060 440 7338 15.75 69.5 216 184.17810058594 734.55458068848 97501.493392944 48410696.103404
36964	162579 6298 657 7543 19 70.75 208 0.973 11.390538743793 593.13636664389 2790.262598715
36963	168877 6652 657 7543 19 70.75 208 -4.5 2.5000009536743 38.465948104858 369.59117149439
36962	175529 6733 636 7543 18.75 70.75 209 2.0487287044525 15.290713310242 2269.1274549961 29505.883990992
36961	182262 6913 617 7543 18.5 70.75 210 483.14999389648 483.14999389648 101461.49871826 49021122.486456
36960	189175 6880 617 7543 18.5 70.75 210 169.95465087891 732.39540100098 92641.230834961 45416770.725211
36978	196055 6362 892 7994 21.75 73.5 208 0.973 11.200708441096 562.02568839992 2748.3863157162
36977	202417 6346 892 7994 21.75 73.5 208 -4.5 2.5000019073486 35.964826583862 341.69874048864
36976	208763 6614 869 7994 21.5 73.5 209 2.3202767372131 15.02499961853 2295.0937891006 29271.776129974
36975	215377 6920 846 7994 21.25 73.5 210 483.14999389648 734.56706237793 110288.07164001 59030392.690159
36974	222297 6905 846 7994 21.25 73.5 210 162.84295654297 487.0553894043 83279.490142822 35232350.468702
vector 37100  IntersectionExampleScenario.node[28].veinsmobility  posx  ETV
vector 37101  IntersectionExampleScenario.node[28].veinsmobility  posy  ETV
vector 37102  IntersectionExampleScenario.node[28].veinsmobility  speed  ETV
vector 37103  IntersectionExampleScenario.node[28].veinsmobility  acceleration  ETV
vector 37104  IntersectionExampleScenario.node[28].veinsmobility  co2emission  ETV
37048	229603 4822 3759 9564 45.75 83 150 0.96333723109819 12.099024792222 483.67957891873 2736.7556920032
37047	234425 4490 3759 9564 45.75 83 150 -3.4488143920898 2.5 40.208654403687 215.41582424072
37046	238915 4741 3722 9564 45.5 83 151 5.6500000953674 16.27499961853 2211.326382637 33126.279945099
37045	243656 5016 3685 9564 45.25 83 152 483.14999389648 483.14999389648 73438.799072266 35481955.32353
37044	248672 4980 3685 9564 45.25 83 152 184.17810058594 731.68649291992 67977.498031616 34416512.226543
vector 37107  IntersectionExampleScenario.node[29].veinsmobility  posx  ETV
vector 37108  IntersectionExampleScenario.node[29].veinsmobility  posy  ETV
vector 37109  IntersectionExampleScenario.node[29].veinsmobility  speed  ETV
vector 37110  IntersectionExampleScenario.node[29].veinsmobility  acceleration  ETV
vector 37111  IntersectionExampleScenario.node[29].veinsmobility  co2emission  ETV
vector 37114  IntersectionExampleScenario.node[30].veinsmobility  posx  ETV
vector 37115  IntersectionExampleScenario.node[30].veinsmobility  posy  ETV
vector 37116  IntersectionExampleScenario.node[30].veinsmobility  speed  ETV
vector 37117  IntersectionExampleScenario.node[30].veinsmobility  acceleration  ETV
vector 37118  IntersectionExampleScenario.node[30].veinsmobility  co2emission  ETV
36915	254454 10617 45 12635 3.5 103.25 400 0.973 11.648172402475 762.35141258103 3098.5331247118
36914	265071 9289 45 12635 3.5 103.25 400 -7.4922199249268 4 38.171613693237 479.41769177267
36913	274360 9618 40 12635 3.25 103.25 401 0 15.64999961853 2175.1207141876 30519.901571347
36912	283978 13159 35 12635 3 103.25 402 486.85000610352 732.53002929688 203882.48892212 104570767.13661
36911	297137 13218 35 12635 3 103.25 402 486.63604736328 785.82187652588 212363.04821014 114456712.96898
36936	310355 10510 242 12759 11.25 104.25 373 0.97223939240464 11.648172402475 731.63295764716 3072.5115008233
36935	320865 10582 242 12759 11.25 104.25 373 -3.9871432781219 2.5 38.680875778198 343.09538985764
36934	331447 10511 231 12759 11 104.25 374 0 15.64999961853 2216.6475395104 29785.022428963
36933	341958 12419 220 12759 10.75 104.25 375 486.85000610352 486.85000610352 182568.75228882 88883598.166123
36932	354377 12391 220 12759 10.75 104.25 375 236.44854736328 785.82187652588 192535.80249786 103020823.33202
vector 37121  IntersectionExampleScenario.node[31].veinsmobility  posx  ETV
vector 37122  IntersectionExampleScenario.node[31].veinsmobility  posy  ETV
vector 37123  IntersectionExampleScenario.node[31].veinsmobility  speed  ETV
vector 37124  IntersectionExampleScenario.node[31].veinsmobility  acceleration  ETV
vector 37125  IntersectionExampleScenario.node[31].veinsmobility  co2emission  ETV
36957	367169 10566 549 13174 17.5 107.75 362 0.973 10.756497587458 690.9947076126 2550.1816133154
36956	377735 10640 549 13174 17.5 107.75 362 -3.789165019989 2.5 34.267293930054 303.47351768114
36955	388375 10895 532 13174 17.25 107.75 363 0 14.39999961853 2213.1346816691 27326.088933738
36954	399270 12109 515 13174 17 107.75 364 486.85000610352 486.85000610352 177213.40222168 86276345.95325
36953	411379 12086 515 13174 17 107.75 364 236.91534423828 785.82187652588 188475.33131409 101983626.41829
vector 37128  IntersectionExampleScenario.node[32].veinsmobility  posx  ETV
vector 37129  IntersectionExampleScenario.node[32].veinsmobility  posy  ETV
vector 37130  IntersectionExampleScenario.node[32].veinsmobility  speed  ETV
vector 37131  IntersectionExampleScenario.node[32].veinsmobility  acceleration  ETV
vector 37132  IntersectionExampleScenario.node[32].veinsmobility  co2emission  ETV
36971	423866 10973 678 13366 19.25 109.25 361 0.973 10.756497587458 735.13471201807 2775.2893360408
36970	434839 11571 678 13366 19.25 109.25 361 -4.5 2.5000009536743 37.340379714966 419.76274064109
36969	446410 11363 657 13366 19 109.25 362 0 15.02440738678 2293.1972506931 29498.036453807
36968	457773 12095 636 13366 18.75 109.25 363 486.85000610352 486.85000610352 176726.55221558 86039323.024807
36967	469868 12062 636 13366 18.75 109.25 363 236.56976318359 805.05782318115 191258.91963959 105474881.34333
36985	481930 10824 1149 13630 24.5 111.25 348 0.973 11.200708441096 716.67326048541 2885.8867668787
36984	492754 11287 1149 13630 24.5 111.25 348 -4.5 2.5 38.341367721558 381.16494607325
36983	504041 11263 1124 13630 24.25 111.25 349 0 15.288182258606 2246.0171186505 29269.681443147
36982	515304 11698 1099 13630 24 111.25 350 486.85000610352 486.85000610352 170397.50213623 82958024.955048
36981	527002 11655 1099 13630 24 111.25 350 236.33599853516 792.529296875 184515.99880219 101609853.44541
37013	538657 10209 2198 14191 34.25 115.5 326 0.973 11.200708441096 708.92373410339 3094.427197367
37012	548866 10459 2198 14191 34.25 115.5 326 -4.1894702911377 2.5 35.625318527222 452.00827608543
37011	559325 10623 2169 14191 34 115.5 327 0 15.02499961853 2194.4367720187 27351.830920859
37010	569948 11001 2139 14191 33.75 115.5 328 486.85000610352 735.50006103516 168397.70303345 87666194.42228
37009	580949 10985 2139 14191 33.75 115.5 328 486.84292602539 785.82187652588 181558.62728119 102423901.47772
vector 37135  IntersectionExampleScenario.node[33].veinsmobility  posx  ETV
vector 37136  IntersectionExampleScenario.node[33].veinsmobility  posy  ETV
vector 37142  IntersectionExampleScenario.node[34].veinsmobility  posx  ETV
vector 37143  IntersectionExampleScenario.node[34].veinsmobility  posy  ETV
vector 37137  IntersectionExampleScenario.node[33].veinsmobility  speed  ETV
vector 37138  IntersectionExampleScenario.node[33].veinsmobility  acceleration  ETV
vector 37139  IntersectionExampleScenario.node[33].veinsmobility  co2emission  ETV
vector 37144  IntersectionExampleScenario.node[34].veinsmobility  speed  ETV
vector 37145  IntersectionExampleScenario.node[34].veinsmobility  acceleration  ETV
vector 37146  IntersectionExampleScenario.node[34].veinsmobility  co2emission  ETV
37055	592736 8318 3948 14477 47 117.5 283 0.973 11.200708441096 640.77874360036 2850.8309524735
37054	601054 8660 3948 14477 47 117.5 283 -3.8078298568726 2.5000001192093 37.15309715271 399.77540718715
37053	609714 8576 3909 14477 46.75 117.5 284 0 15.02499961853 2186.2452225089 27355.530872163
37052	618290 9594 3870 14477 46.5 117.5 285 486.85000610352 733.64195251465 147133.43423462 77086553.457204
37051	627884 9584 3870 14477 46.5 117.5 285 486.85000610352 785.82187652588 159570.32196808 91187197.506417
vector 37149  IntersectionExampleScenario.node[35].veinsmobility  posx  ETV
vector 37150  IntersectionExampleScenario.node[35].veinsmobility  posy  ETV
vector 37151  IntersectionExampleScenario.node[35].veinsmobility  speed  ETV
vector 37152  IntersectionExampleScenario.node[35].veinsmobility  acceleration  ETV
vector 37153  IntersectionExampleScenario.node[35].veinsmobility  co2emission  ETV
37069	637869 7634 5268 14905 55.75 120.25 259 0.973 11.200708441096 595.1913395859 2717.3011580091
37068	645503 7651 5268 14905 55.75 120.25 259 -3.5 2.5 35.795072555542 336.40506097998
37067	653154 7883 5231 14905 55.5 120.25 260 0 15.02499961853 2182.2541782968 26805.401057891
37066	661037 8823 5194 14905 55.25 120.25 261 486.85000610352 733.16752624512 135600.88961792 71568851.059496
37065	669860 8820 5194 14905 55.25 120.25 261 486.708984375 785.82187652588 147217.10834503 84874017.708726
37083	678680 6720 6820 15061 66.25 121.25 221 0.973 11.450879080643 580.52556331777 2914.8058129404
37082	685400 7197 6820 15061 66.25 121.25 221 -2.8210067749023 2.5 37.15309715271 315.39736467813
37081	692597 7273 6781 15061 66 121.25 222 0.52310341596603 15.375 2201.4752864242 27582.001407359
37080	699870 7576 6742 15061 65.75 121.25 223 238.01751708984 486.85000610352 100084.52038574 46003516.697012
37079	707446 7576 6742 15061 65.75 121.25 223 483.13357543945 785.82187652588 126816.0450058 73941063.427106
vector 37156  IntersectionExampleScenario.node[36].veinsmobility  posx  ETV
vector 37157  IntersectionExampleScenario.node[36].veinsmobility  posy  ETV
vector 37158  IntersectionExampleScenario.node[36].veinsmobility  speed  ETV
vector 37159  IntersectionExampleScenario.node[36].veinsmobility  acceleration  ETV
vector 37160  IntersectionExampleScenario.node[36].veinsmobility  co2emission  ETV
vector 37163  IntersectionExampleScenario.node[37].veinsmobility  posx  ETV
vector 37164  IntersectionExampleScenario.node[37].veinsmobility  posy  ETV
vector 37165  IntersectionExampleScenario.node[37].veinsmobility  speed  ETV
vector 37166  IntersectionExampleScenario.node[37].veinsmobility  acceleration  ETV
vector 37167  IntersectionExampleScenario.node[37].veinsmobility  co2emission  ETV
vector 37170  IntersectionExampleScenario.node[38].veinsmobility  posx  ETV
vector 37171  IntersectionExampleScenario.node[38].veinsmobility  posy  ETV
vector 37172  IntersectionExampleScenario.node[38].veinsmobility  speed  ETV
vector 37173  IntersectionExampleScenario.node[38].veinsmobility  acceleration  ETV
vector 37174  IntersectionExampleScenario.node[38].veinsmobility  co2emission  ETV
vector 37177  IntersectionExampleScenario.node[39].veinsmobility  posx  ETV
vector 37178  IntersectionExampleScenario.node[39].veinsmobility  posy  ETV
vector 37179  IntersectionExampleScenario.node[39].veinsmobility  speed  ETV
vector 37180  IntersectionExampleScenario.node[39].veinsmobility  acceleration  ETV
vector 37181  IntersectionExampleScenario.node[39].veinsmobility  co2emission  ETV
vector 37184  IntersectionExampleScenario.node[40].veinsmobility  posx  ETV
vector 37185  IntersectionExampleScenario.node[40].veinsmobility  posy  ETV
vector 37186  IntersectionExampleScenario.node[40].veinsmobility  speed  ETV
vector 37191  IntersectionExampleScenario.node[41].veinsmobility  posx  ETV
vector 37192  IntersectionExampleScenario.node[41].veinsmobility  posy  ETV
vector 37187  IntersectionExampleScenario.node[40].veinsmobility  acceleration  ETV
vector 37188  IntersectionExampleScenario.node[40].veinsmobility  co2emission  ETV
vector 37193  IntersectionExampleScenario.node[41].veinsmobility  speed  ETV
vector 37194  IntersectionExampleScenario.node[41].veinsmobility  acceleration  ETV
vector 37195  IntersectionExampleScenario.node[41].veinsmobility  co2emission  ETV
vector 37198  IntersectionExampleScenario.node[42].veinsmobility  posx  ETV
vector 37199  IntersectionExampleScenario.node[42].veinsmobility  posy  ETV
vector 37200  IntersectionExampleScenario.node[42].veinsmobility  speed  ETV
vector 37201  IntersectionExampleScenario.node[42].veinsmobility  acceleration  ETV
vector 37202  IntersectionExampleScenario.node[42].veinsmobility  co2emission  ETV
vector 37205  IntersectionExampleScenario.node[43].veinsmobility  posx  ETV
vector 37206  IntersectionExampleScenario.node[43].veinsmobility  posy  ETV
vector 37207  IntersectionExampleScenario.node[43].veinsmobility  speed  ETV
vector 37212  IntersectionExampleScenario.node[44].veinsmobility  posx  ETV
vector 37213  IntersectionExampleScenario.node[44].veinsmobility  posy  ETV
vector 37208  IntersectionExampleScenario.node[43].veinsmobility  acceleration  ETV
vector 37209  IntersectionExampleScenario.node[43].veinsmobility  co2emission  ETV
vector 37214  IntersectionExampleScenario.node[44].veinsmobility  speed  ETV
vector 37215  IntersectionExampleScenario.node[44].veinsmobility  acceleration  ETV
vector 37216  IntersectionExampleScenario.node[44].veinsmobility  co2emission  ETV
vector 37219  IntersectionExampleScenario.node[45].veinsmobility  posx  ETV
vector 37220  IntersectionExampleScenario.node[45].veinsmobility  posy  ETV
vector 37221  IntersectionExampleScenario.node[45].veinsmobility  speed  ETV
vector 37222  IntersectionExampleScenario.node[45].veinsmobility  acceleration  ETV
vector 37223  IntersectionExampleScenario.node[45].veinsmobility  co2emission  ETV
vector 37226  IntersectionExampleScenario.node[46].veinsmobility  posx  ETV
vector 37227  IntersectionExampleScenario.node[46].veinsmobility  posy  ETV
vector 37228  IntersectionExampleScenario.node[46].veinsmobility  speed  ETV
vector 37229  IntersectionExampleScenario.node[46].veinsmobility  acceleration  ETV
vector 37230  IntersectionExampleScenario.node[46].veinsmobility  co2emission  ETV
36999	719433 12367 1892 19094 31.5 145.25 456 0.973 11.648172402475 819.93293806601 3195.1148033126
36998	731800 10862 1892 19094 31.5 145.25 456 -7.4922728538513 4 38.171613693237 484.73649532449
36997	742662 11195 1865 19094 31.25 145.25 457 0 15.64999961853 2209.892436862 31296.211266307
36996	753857 15497 1838 19094 31 145.25 458 184.17810058594 732.85957336426 212353.41816711 102652068.3642
36995	769354 15534 1838 19094 31 145.25 458 486.85000610352 486.85000610352 222977.30279541 108556501.22689
36992	784888 12998 1328 19206 26.25 146 480 0.973 11.200708441096 822.98346332719 2915.0242694309
36991	797886 11187 1328 19206 26.25 146 480 -28.45125579834 4 35.625318527222 1143.445506687
36990	809073 11623 1301 19206 26 146 481 0 15.02499961853 2185.1738872528 29863.622168772
36989	820696 16327 1274 19206 25.75 146 482 486.63604736328 785.82187652588 252514.18634796 134664819.54039
36988	837023 16261 1274 19206 25.75 146 482 234.9931640625 483.14999389648 224203.98468018 105565448.42317
37006	853284 12731 2139 19280 33.75 146.5 452 0.973 11.810082123732 834.65246805184 3314.8652546677
37005	866015 11612 2139 19280 33.75 146.5 452 -4.5 2.5 39.869146347046 455.85713364598
37004	877627 11838 2110 19280 33.5 146.5 453 0 15.875 2257.3600146398 31961.380828179
37003	889465 15379 2081 19280 33.25 146.5 454 167.29217529297 483.14999389648 198943.03213501 89735410.728091
37002	904844 15404 2081 19280 33.25 146.5 454 486.85000610352 734.37542724609 229102.83491516 116796498.65523
37020	920248 13082 2262 19499 34.75 148 454 0.973 11.54047740176 852.81616467522 3329.7774845218
37019	933330 12513 2262 19499 34.75 148 454 -4.5 2.5 40.038900375366 436.48224654975
37018	945843 12644 2229 19499 34.5 148 455 0 15.953994750977 2334.7372843074 32666.956097582
37017	958487 15452 2198 19499 34.25 148 456 153.56011962891 732.53691101074 204679.97183228 96686836.776661
37016	973939 15491 2198 19499 34.25 148 456 486.85000610352 486.85000610352 222003.6027832 108082455.37001
37027	989430 13038 2295 19674 35 149.25 458 0.973 11.200708441096 809.98439416494 2905.6590837677
37026	1002468 12957 2295 19674 35 149.25 458 -20 4 35.795072555542 768.35429098194
37025	1015425 12832 2262 19674 34.75 149.25 459 0 15.02499961853 2205.9017988443 28024.652587413
37024	1028257 15611 2229 19674 34.5 149.25 460 483.14999389648 785.82187652588 243696.73822784 131384914.04208
37023	1043868 15626 2229 19674 34.5 149.25 460 483.14999389648 735.15341186523 231187.22329712 117511977.40512
37041	1059494 12882 3195 20026 41.75 152 442 0.973 11.36141391502 791.47734859434 2984.1918387249
37040	1072376 12658 3195 20026 41.75 152 442 -3.698450088501 2.5 37.15309715271 354.65116896695
37039	1085034 12538 3160 20026 41.5 152 443 0 15.25 2085.5000681337 26953.365679045
37038	1097572 15097 3125 20026 41.25 152 444 209.15008544922 483.14999389648 193397.12945557 85851389.325542
37037	1112669 15121 3125 20026 41.25 152 444 486.85000610352 734.00511169434 224560.11468506 114795911.37131
vector 37233  IntersectionExampleScenario.node[47].veinsmobility  posx  ETV
vector 37234  IntersectionExampleScenario.node[47].veinsmobility  posy  ETV
vector 37235  IntersectionExampleScenario.node[47].veinsmobility  speed  ETV
vector 37236  IntersectionExampleScenario.node[47].veinsmobility  acceleration  ETV
vector 37237  IntersectionExampleScenario.node[47].veinsmobility  co2emission  ETV
37062	1128191 11922 4866 20207 53 153.5 403 0.973 12.553400930962 807.67369275547 3600.9523164566
37061	1140113 12088 4866 20207 53 153.5 403 -3.7540783882141 2.5 44.112981796265 353.55269588989
37060	1152201 12082 4829 20207 52.75 153.5 404 0 16.89999961853 2226.809473929 30739.202713922
37059	1164283 13800 4791 20207 52.5 153.5 405 184.17810058594 734.98997497559 178275.50134277 82449877.255764
37058	1178083 13852 4791 20207 52.5 153.5 405 486.85000610352 486.85003662109 197174.25259399 95994286.138273
37034	1191935 13669 2926 20236 39.75 153.75 457 0.973 10.916047529558 875.47450236976 3229.1440358104
37033	1205604 13530 2926 20236 39.75 153.75 457 -4.5 2.5 40.038900375366 487.45445304871
37032	1219134 13412 2891 20236 39.5 153.75 458 0 15.686457633972 2243.7113728803 28912.183776703
37031	1232546 15595 2856 20236 39.25 153.75 459 170.32202148438 483.14999389648 194089.54891968 84554463.032952
37030	1248141 15632 2856 20236 39.25 153.75 459 486.85000610352 733.94993591309 231531.20007324 117968055.95784
37153	1263773 5276 14592 20573 118.25 156.75 155 0.973 11.648172402475 467.17507503573 2447.3369852113
37152	1269049 4987 14592 20573 118.25 156.75 155 -3.3760986328125 2.5 37.662351608276 192.05801892214
37151	1274036 5223 14553 20573 118 156.75 156 5.6500000953674 15.64999961853 2212.4901561737 31985.657585421
37150	1279259 5461 14514 20573 117.75 156.75 157 237.80609130859 785.82187652588 81888.966377258 46859094.597199
37149	1284720 5496 14514 20573 117.75 156.75 157 483.14999389648 483.14999389648 75854.549041748 36649124.906541
37076	1290216 11188 5594 20627 58 157.25 398 0.973 12.099024792222 792.82668385095 3579.9350266075
37075	1301404 10396 5594 20627 58 157.25 398 -4.5 2.5000009536743 40.887662887573 504.9595938928
37074	1311800 10696 5557 20627 57.75 157.25 399 0 16.27499961853 2187.1005231366 29269.995973076
37073	1322496 13576 5520 20627 57.5 157.25 400 184.17810058594 483.14999389648 166964.54620361 71522360.110323
37072	1336072 13711 5520 20627 57.5 157.25 400 486.84991455078 733.74098205566 202660.74272156 103818895.3675
37104	1349783 9607 9392 20978 82 160.5 315 0.973 12.099024792222 701.48661210301 3375.4972295706
37103	1359390 10203 9392 20978 82 160.5 315 -2.5015487670898 2.5 41.057416915894 322.00326307035
37102	1369593 10292 9349 20978 81.75 160.5 316 0 16.27499961853 2212.699672821 29092.362143853
37101	1379885 10948 9306 20978 81.5 160.5 317 184.17810058594 732.27557373047 136358.94509888 62772374.556838
37100	1390833 11004 9306 20978 81.5 160.5 317 486.85000610352 486.85000610352 154331.45193481 75136268.316429
37090	1401837 10590 7094 21005 68 160.75 372 0.973 11.36141391502 722.0444884291 2974.7037927095
37089	1412427 10451 7094 21005 68 160.75 372 -3.5 2.5 36.98334312439 350.17479453099
37088	1422878 10448 7055 21005 67.75 160.75 373 0 15.25 2185.9666295797 27109.177848618
37087	1433326 12849 7015 21005 67.5 160.75 374 184.17810058594 483.2900390625 153868.37008667 65148732.345512
37086	1446175 12879 7015 21005 67.5 160.75 374 486.84997558594 733.87959289551 190496.74855042 98221773.031572
vector 37240  IntersectionExampleScenario.node[48].veinsmobility  posx  ETV
vector 37241  IntersectionExampleScenario.node[48].veinsmobility  posy  ETV
vector 37247  IntersectionExampleScenario.node[49].veinsmobility  posx  ETV
vector 37248  IntersectionExampleScenario.node[49].veinsmobility  posy  ETV
vector 37242  IntersectionExampleScenario.node[48].veinsmobility  speed  ETV
vector 37243  IntersectionExampleScenario.node[48].veinsmobility  acceleration  ETV
vector 37244  IntersectionExampleScenario.node[48].veinsmobility  co2emission  ETV
vector 37249  IntersectionExampleScenario.node[49].veinsmobility  speed  ETV
vector 37254  IntersectionExampleScenario.node[50].veinsmobility  posx  ETV
vector 37255  IntersectionExampleScenario.node[50].veinsmobility  posy  ETV
vector 37250  IntersectionExampleScenario.node[49].veinsmobility  acceleration  ETV
vector 37251  IntersectionExampleScenario.node[49].veinsmobility  co2emission  ETV
vector 37261  IntersectionExampleScenario.node[51].veinsmobility  posx  ETV
vector 37262  IntersectionExampleScenario.node[51].veinsmobility  posy  ETV
vector 37256  IntersectionExampleScenario.node[50].veinsmobility  speed  ETV
vector 37257  IntersectionExampleScenario.node[50].veinsmobility  acceleration  ETV
vector 37258  IntersectionExampleScenario.node[50].veinsmobility  co2emission  ETV
vector 37263  IntersectionExampleScenario.node[51].veinsmobility  speed  ETV
vector 37264  IntersectionExampleScenario.node[51].veinsmobility  acceleration  ETV
vector 37265  IntersectionExampleScenario.node[51].veinsmobility  co2emission  ETV
37118	1460658 8607 11736 21427 96.75 164.25 271 0.973 11.648172402475 663.86942101777 3270.5653455082
37117	1469265 9027 11736 21427 96.75 164.25 271 -3.9728546142578 2.5 38.341367721558 396.46573157953
37116	1478292 9163 11699 21427 96.5 164.25 272 0 15.64999961853 2181.7896010354 27048.932316437
37115	1487455 9486 11662 21427 96.25 164.25 273 184.17810058594 483.32861328125 109448.73773193 45658089.996754
37114	1496941 9536 11662 21427 96.25 164.25 273 486.85000610352 732.73030090332 141067.3730011 73983259.582817
vector 37268  IntersectionExampleScenario.node[52].veinsmobility  posx  ETV
vector 37269  IntersectionExampleScenario.node[52].veinsmobility  posy  ETV
vector 37275  IntersectionExampleScenario.node[53].veinsmobility  posx  ETV
vector 37276  IntersectionExampleScenario.node[53].veinsmobility  posy  ETV
vector 37270  IntersectionExampleScenario.node[52].veinsmobility  speed  ETV
vector 37277  IntersectionExampleScenario.node[53].veinsmobility  speed  ETV
vector 37271  IntersectionExampleScenario.node[52].veinsmobility  acceleration  ETV
vector 37272  IntersectionExampleScenario.node[52].veinsmobility  co2emission  ETV
vector 37278  IntersectionExampleScenario.node[53].veinsmobility  acceleration  ETV
vector 37279  IntersectionExampleScenario.node[53].veinsmobility  co2emission  ETV
vector 37282  IntersectionExampleScenario.node[54].veinsmobility  posx  ETV
vector 37283  IntersectionExampleScenario.node[54].veinsmobility  posy  ETV
37174	1507433 5259 16137 21629 127.75 165.75 153 0.97223939240464 11.648172402475 471.80125096764 2469.8143218926
37173	1512692 4781 16137 21629 127.75 165.75 153 -3.5467910766602 2.5 38.680875778198 197.15975724438
37172	1517473 5164 16092 21629 127.5 165.75 154 5.6500000953674 15.64999961853 2210.3583621979 32381.155842395
37171	1522637 5409 16047 21629 127.25 165.75 155 238.41052246094 785.82187652588 80957.144294739 46372668.315127
37170	1528046 5427 16047 21629 127.25 165.75 155 483.14999389648 483.14999389648 74888.249053955 36182257.073337
vector 37284  IntersectionExampleScenario.node[54].veinsmobility  speed  ETV
vector 37285  IntersectionExampleScenario.node[54].veinsmobility  acceleration  ETV
vector 37286  IntersectionExampleScenario.node[54].veinsmobility  co2emission  ETV
37125	1533720 7390 13174 21703 107.75 166.25 235 0.973 11.648172402475 620.90611918868 3203.9222829059
37124	1541110 7718 13174 21703 107.75 166.25 235 -3.9120178222656 2.5 38.171613693237 408.63809450116
37123	1548828 7945 13143 21703 107.5 166.25 236 0 15.64999961853 2213.5823663622 27315.677630887
37122	1556773 8268 13112 21703 107.25 166.25 237 184.17810058594 486.87841796875 94158.888671875 39231832.152749
37121	1565041 8284 13112 21703 107.25 166.25 237 235.19720458984 486.85000610352 106845.1946106 49292540.628417
37181	1573325 5104 16363 21851 129 167.25 154 0.96208957481899 12.099024792222 536.20454152829 3533.3747713446
37180	1578429 4965 16363 21851 129 167.25 154 -3.6980361938477 2.5 40.378400802612 287.82505353901
37179	1583394 5185 16318 21851 128.75 167.25 155 5.6500000953674 16.27499961853 2220.003446579 32536.109911332
37178	1588579 5432 16272 21851 128.5 167.25 156 184.17810058594 733.73492431641 69741.577545166 35244363.615576
37177	1594011 5460 16272 21851 128.5 167.25 156 486.85000610352 486.85000610352 75948.600952148 36975576.837107
37188	1599471 5278 16625 22073 130.5 168.75 154 0.973 11.648172402475 485.53160647209 2537.7763926369
37187	1604749 4839 16625 22073 130.5 168.75 154 -3.581974029541 2.5 40.548154830933 195.64735816874
37186	1609588 5199 16582 22073 130.25 168.75 155 5.6500000953674 15.855282783508 2275.6854496002 34169.650885391
37185	1614787 5443 16538 22073 130 168.75 156 236.45129394531 800.04531860352 82533.289588928 48024651.358697
37184	1620230 5460 16538 22073 130 168.75 156 483.14999389648 483.14999389648 75371.399047852 36415690.989939
vector 37289  IntersectionExampleScenario.node[55].veinsmobility  posx  ETV
vector 37290  IntersectionExampleScenario.node[55].veinsmobility  posy  ETV
vector 37291  IntersectionExampleScenario.node[55].veinsmobility  speed  ETV
vector 37292  IntersectionExampleScenario.node[55].veinsmobility  acceleration  ETV
vector 37293  IntersectionExampleScenario.node[55].veinsmobility  co2emission  ETV
37202	1626091 5138 17069 22373 133 170.75 152 0.973 12.099024792222 483.67259238869 2747.7880958184
37201	1631229 4988 17069 22373 133 170.75 152 -3.0224838256836 2.5 40.038900375366 205.13643233086
37200	1636217 5116 17026 22373 132.75 170.75 153 5.6500000953674 16.27499961853 2235.8449420929 33412.405892738
37199	1641333 5341 16982 22373 132.5 170.75 154 177.97814941406 731.56169128418 68407.61807251 34541847.162235
37198	1646674 5391 16982 22373 132.5 170.75 154 486.85000610352 486.85000610352 74974.900939941 36501530.980221
vector 37296  IntersectionExampleScenario.node[56].veinsmobility  posx  ETV
vector 37297  IntersectionExampleScenario.node[56].veinsmobility  posy  ETV
vector 37298  IntersectionExampleScenario.node[56].veinsmobility  speed  ETV
vector 37303  IntersectionExampleScenario.node[57].veinsmobility  posx  ETV
vector 37304  IntersectionExampleScenario.node[57].veinsmobility  posy  ETV
vector 37299  IntersectionExampleScenario.node[56].veinsmobility  acceleration  ETV
vector 37300  IntersectionExampleScenario.node[56].veinsmobility  co2emission  ETV
vector 37305  IntersectionExampleScenario.node[57].veinsmobility  speed  ETV
vector 37306  IntersectionExampleScenario.node[57].veinsmobility  acceleration  ETV
vector 37307  IntersectionExampleScenario.node[57].veinsmobility  co2emission  ETV
37209	1652867 5258 17983 23309 138.5 176.5 153 0.97223939240464 11.648172402475 471.80125096764 2469.8143218926
37208	1658125 4780 17983 23309 138.5 176.5 153 -3.5467910766602 2.5 38.680875778198 197.15975724438
37207	1662905 5164 17942 23309 138.25 176.5 154 5.6500000953674 15.64999961853 2210.3583621979 32381.155842395
37206	1668069 5406 17901 23309 138 176.5 155 238.41052246094 785.82187652588 80957.144294739 46372668.315127
37205	1673475 5424 17901 23309 138 176.5 155 483.14999389648 483.14999389648 74888.249053955 36182257.073337
37230	1678899 5381 18407 23932 141 180.5 159 0.97223939240464 11.810082123732 507.90446564047 2852.4636117653
37229	1684280 5061 18407 23932 141 180.5 159 -3.3224430084229 2.5 38.680875778198 281.07744140111
37228	1689341 5263 18363 23932 140.75 180.5 160 5.6500000953674 15.875 2180.3963646889 31117.976693899
37227	1694604 5611 18318 23932 140.5 180.5 161 184.17810058594 483.26412963867 64007.387817383 27185758.505355
37226	1700215 5632 18318 23932 140.5 180.5 161 486.85000610352 732.1520690918 86462.362838745 47344178.003173
vector 37310  IntersectionExampleScenario.node[58].veinsmobility  posx  ETV
vector 37311  IntersectionExampleScenario.node[58].veinsmobility  posy  ETV
vector 37317  IntersectionExampleScenario.node[59].veinsmobility  posx  ETV
vector 37318  IntersectionExampleScenario.node[59].veinsmobility  posy  ETV
vector 37312  IntersectionExampleScenario.node[58].veinsmobility  speed  ETV
vector 37313  IntersectionExampleScenario.node[58].veinsmobility  acceleration  ETV
vector 37314  IntersectionExampleScenario.node[58].veinsmobility  co2emission  ETV
vector 37319  IntersectionExampleScenario.node[59].veinsmobility  speed  ETV
vector 37320  IntersectionExampleScenario.node[59].veinsmobility  acceleration  ETV
vector 37321  IntersectionExampleScenario.node[59].veinsmobility  co2emission  ETV
vector 37324  IntersectionExampleScenario.node[60].veinsmobility  posx  ETV
vector 37325  IntersectionExampleScenario.node[60].veinsmobility  posy  ETV
vector 37326  IntersectionExampleScenario.node[60].veinsmobility  speed  ETV
vector 37327  IntersectionExampleScenario.node[60].veinsmobility  acceleration  ETV
vector 37328  IntersectionExampleScenario.node[60].veinsmobility  co2emission  ETV
37097	1707050 13777 7215 25752 68.75 193 498 0.973 11.200708441096 841.04784470344 2966.0649989868
37096	1720827 12079 7215 25752 68.75 193 498 -6.8669724464417 4 35.625318527222 451.20992636987
37095	1732906 12468 7174 25752 68.5 193 499 0 15.02499961853 2216.7981914282 30264.34439099
37094	1745374 17303 7133 25752 68.25 193 500 483.14999389648 483.14999389648 241574.99694824 116716958.30109
37093	1762677 17271 7133 25752 68.25 193 500 184.17810058594 734.74969482422 232331.87838745 112316793.102
37111	1779948 11893 11109 25752 92.5 193 403 0.973 12.26218747632 791.27101487333 3509.5663150545
37110	1791841 11764 11109 25752 92.5 193 403 -3.7470507621765 2.5 42.245687484741 368.7779653301
37109	1803605 11650 11070 25752 92.25 193 404 0 16.5 2188.2476422526 30157.333664588
37108	1815255 14079 11031 25752 92 193 405 236.19897460938 483.14999389648 187914.581604 88312669.795929
37107	1829334 14098 11031 25752 92 193 405 184.17810058594 483.14999389648 177106.45880127 79575469.816221
vector 37331  IntersectionExampleScenario.node[61].veinsmobility  posx  ETV
vector 37332  IntersectionExampleScenario.node[61].veinsmobility  posy  ETV
vector 37333  IntersectionExampleScenario.node[61].veinsmobility  speed  ETV
vector 37334  IntersectionExampleScenario.node[61].veinsmobility  acceleration  ETV
vector 37335  IntersectionExampleScenario.node[61].veinsmobility  co2emission  ETV
vector 37338  IntersectionExampleScenario.node[62].veinsmobility  posx  ETV
vector 37339  IntersectionExampleScenario.node[62].veinsmobility  posy  ETV
vector 37340  IntersectionExampleScenario.node[62].veinsmobility  speed  ETV
vector 37341  IntersectionExampleScenario.node[62].veinsmobility  acceleration  ETV
vector 37342  IntersectionExampleScenario.node[62].veinsmobility  co2emission  ETV
vector 37345  IntersectionExampleScenario.node[63].veinsmobility  posx  ETV
vector 37346  IntersectionExampleScenario.node[63].veinsmobility  posy  ETV
vector 37347  IntersectionExampleScenario.node[63].veinsmobility  speed  ETV
vector 37348  IntersectionExampleScenario.node[63].veinsmobility  acceleration  ETV
vector 37349  IntersectionExampleScenario.node[63].veinsmobility  co2emission  ETV
vector 37352  IntersectionExampleScenario.node[64].veinsmobility  posx  ETV
vector 37353  IntersectionExampleScenario.node[64].veinsmobility  posy  ETV
vector 37354  IntersectionExampleScenario.node[64].veinsmobility  speed  ETV
vector 37355  IntersectionExampleScenario.node[64].veinsmobility  acceleration  ETV
vector 37356  IntersectionExampleScenario.node[64].veinsmobility  co2emission  ETV
37132	1845036 10814 13333 26339 109 196.75 352 0.973 11.36141391502 695.32507584666 2853.6628006491
37131	1855850 11128 13333 26339 109 196.75 352 -3.9785485267639 2.5 36.134572982788 321.04411939542
37130	1866978 10969 13300 26339 108.75 196.75 353 0 15.25 2192.0968203284 27849.668890334
37129	1877947 12374 13267 26339 108.5 196.75 354 235.10931396484 483.14999389648 162441.59637451 75749613.7884
37128	1890321 12285 13267 26339 108.5 196.75 354 184.17810058594 483.24563598633 151664.32913208 67065553.080842
37139	1902606 10193 14329 26511 116.5 197.75 326 0.973 11.90022389248 697.92022731065 3204.2723888339
37138	1912799 10632 14329 26511 116.5 197.75 326 -3.7742948532104 2.5000019073486 39.869146347046 355.92446679526
37137	1923431 10609 14292 26511 116.25 197.75 327 0 16 2213.9626723835 28798.033182947
37136	1934040 11462 14257 26511 116 197.75 328 483.14999389648 734.26834106445 166758.91671753 85958001.167518
37135	1945502 11435 14257 26511 116 197.75 328 184.17810058594 486.85000610352 138751.17398071 60687198.116074
vector 37359  IntersectionExampleScenario.node[65].veinsmobility  posx  ETV
vector 37360  IntersectionExampleScenario.node[65].veinsmobility  posy  ETV
vector 37361  IntersectionExampleScenario.node[65].veinsmobility  speed  ETV
vector 37366  IntersectionExampleScenario.node[66].veinsmobility  posx  ETV
vector 37367  IntersectionExampleScenario.node[66].veinsmobility  posy  ETV
vector 37362  IntersectionExampleScenario.node[65].veinsmobility  acceleration  ETV
vector 37363  IntersectionExampleScenario.node[65].veinsmobility  co2emission  ETV
vector 37368  IntersectionExampleScenario.node[66].veinsmobility  speed  ETV
37195	1957570 8838 16715 26820 131 199.5 275 0.973 11.648172402475 643.1377566214 3010.458897837
37194	1966408 9336 16715 26820 131 199.5 275 -3.8877999782562 2.5 39.699392318726 328.31572283369
37193	1975744 9373 16670 26820 130.75 199.5 276 0 15.64999961853 2223.868901724 29618.551319525
37192	1985117 9695 16625 26820 130.5 199.5 277 483.14999389648 483.14999389648 133832.54830933 64661194.898802
37191	1994812 9643 16625 26820 130.5 199.5 277 184.17810058594 734.52514648438 123191.30935669 58924390.443001
vector 37369  IntersectionExampleScenario.node[66].veinsmobility  acceleration  ETV
vector 37370  IntersectionExampleScenario.node[66].veinsmobility  co2emission  ETV
37279	2004624 5346 21559 27807 165.25 204.75 159 0.973 11.810082123732 514.22000102701 3027.8470401725
37278	2009970 5247 21559 27807 165.25 204.75 159 -3.6016597747803 2.5 38.511121749878 304.24333069936
37277	2015217 5253 21524 27807 165 204.75 160 5.6500000953674 15.875 2177.3543601036 31001.868445082
37276	2020470 5631 21489 27807 164.75 204.75 161 238.38507080078 483.14999389648 69723.147247314 31101951.250459
37275	2026101 5609 21489 27807 164.75 204.75 161 184.17810058594 483.21517944336 63966.171966553 27152975.762778
vector 37373  IntersectionExampleScenario.node[67].veinsmobility  posx  ETV
vector 37374  IntersectionExampleScenario.node[67].veinsmobility  posy  ETV
vector 37380  IntersectionExampleScenario.node[68].veinsmobility  posx  ETV
vector 37381  IntersectionExampleScenario.node[68].veinsmobility  posy  ETV
vector 37375  IntersectionExampleScenario.node[67].veinsmobility  speed  ETV
vector 37376  IntersectionExampleScenario.node[67].veinsmobility  acceleration  ETV
vector 37377  IntersectionExampleScenario.node[67].veinsmobility  co2emission  ETV
vector 37382  IntersectionExampleScenario.node[68].veinsmobility  speed  ETV
vector 37387  IntersectionExampleScenario.node[69].veinsmobility  posx  ETV
vector 37388  IntersectionExampleScenario.node[69].veinsmobility  posy  ETV
vector 37383  IntersectionExampleScenario.node[68].veinsmobility  acceleration  ETV
vector 37384  IntersectionExampleScenario.node[68].veinsmobility  co2emission  ETV
37286	2032666 5617 21703 28378 166.25 207.75 167 0.973 11.810082123732 520.82721479411 2881.9919696791
37285	2038283 5543 21703 28378 166.25 207.75 167 -4.5 2.5 38.850629806519 286.96571597137
37284	2043826 5556 21666 28378 166 207.75 168 5.6500000953674 15.875 2281.909693718 32436.112933582
37283	2049382 5898 21629 28378 165.75 207.75 169 235.078125 483.14999389648 73424.973083496 32857516.345488
37282	2055280 5880 21629 28378 165.75 207.75 169 162.00311279297 483.33309936523 65849.500640869 27749029.257845
vector 37389  IntersectionExampleScenario.node[69].veinsmobility  speed  ETV
vector 37390  IntersectionExampleScenario.node[69].veinsmobility  acceleration  ETV
vector 37391  IntersectionExampleScenario.node[69].veinsmobility  co2emission  ETV
vector 37394  IntersectionExampleScenario.node[70].veinsmobility  posx  ETV
vector 37395  IntersectionExampleScenario.node[70].veinsmobility  posy  ETV
vector 37396  IntersectionExampleScenario.node[70].veinsmobility  speed  ETV
vector 37397  IntersectionExampleScenario.node[70].veinsmobility  acceleration  ETV
vector 37398  IntersectionExampleScenario.node[70].veinsmobility  co2emission  ETV
vector 37401  IntersectionExampleScenario.node[71].veinsmobility  posx  ETV
vector 37402  IntersectionExampleScenario.node[71].veinsmobility  posy  ETV
vector 37403  IntersectionExampleScenario.node[71].veinsmobility  speed  ETV
vector 37404  IntersectionExampleScenario.node[71].veinsmobility  acceleration  ETV
vector 37405  IntersectionExampleScenario.node[71].veinsmobility  co2emission  ETV
vector 37408  IntersectionExampleScenario.node[72].veinsmobility  posx  ETV
vector 37409  IntersectionExampleScenario.node[72].veinsmobility  posy  ETV
vector 37410  IntersectionExampleScenario.node[72].veinsmobility  speed  ETV
vector 37411  IntersectionExampleScenario.node[72].veinsmobility  acceleration  ETV
vector 37412  IntersectionExampleScenario.node[72].veinsmobility  co2emission  ETV
vector 37415  IntersectionExampleScenario.node[73].veinsmobility  posx  ETV
vector 37416  IntersectionExampleScenario.node[73].veinsmobility  posy  ETV
vector 37417  IntersectionExampleScenario.node[73].veinsmobility  speed  ETV
vector 37418  IntersectionExampleScenario.node[73].veinsmobility  acceleration  ETV
vector 37419  IntersectionExampleScenario.node[73].veinsmobility  co2emission  ETV
vector 37422  IntersectionExampleScenario.node[74].veinsmobility  posx  ETV
vector 37423  IntersectionExampleScenario.node[74].veinsmobility  posy  ETV
vector 37429  IntersectionExampleScenario.node[75].veinsmobility  posx  ETV
vector 37430  IntersectionExampleScenario.node[75].veinsmobility  posy  ETV
vector 37424  IntersectionExampleScenario.node[74].veinsmobility  speed  ETV
vector 37425  IntersectionExampleScenario.node[74].veinsmobility  acceleration  ETV
vector 37426  IntersectionExampleScenario.node[74].veinsmobility  co2emission  ETV
vector 37431  IntersectionExampleScenario.node[75].veinsmobility  speed  ETV
vector 37432  IntersectionExampleScenario.node[75].veinsmobility  acceleration  ETV
vector 37433  IntersectionExampleScenario.node[75].veinsmobility  co2emission  ETV
vector 37436  IntersectionExampleScenario.node[76].veinsmobility  posx  ETV
vector 37437  IntersectionExampleScenario.node[76].veinsmobility  posy  ETV
vector 37438  IntersectionExampleScenario.node[76].veinsmobility  speed  ETV
vector 37439  IntersectionExampleScenario.node[76].veinsmobility  acceleration  ETV
vector 37440  IntersectionExampleScenario.node[76].veinsmobility  co2emission  ETV
vector 37443  IntersectionExampleScenario.node[77].veinsmobility  posx  ETV
vector 37444  IntersectionExampleScenario.node[77].veinsmobility  posy  ETV
vector 37445  IntersectionExampleScenario.node[77].veinsmobility  speed  ETV
37314	2064446 5173 24570 31684 185 223.25 154 0.973 12.26218747632 524.74653967205 3137.2923189768
37313	2069619 5041 24570 31684 185 223.25 154 -4.2126274108887 2.5 41.227170944214 307.94050094721
37312	2074660 5077 24533 31684 184.75 223.25 155 5.6500000953674 16.5 2175.7728290558 32146.301905034
37311	2079737 5457 24498 31684 184.5 223.25 156 238.74188232422 483.14999389648 67654.790405273 30210860.787365
37310	2085194 5431 24498 31684 184.5 223.25 156 184.17810058594 483.19876098633 61929.753875732 26286012.290039
vector 37446  IntersectionExampleScenario.node[77].veinsmobility  acceleration  ETV
vector 37447  IntersectionExampleScenario.node[77].veinsmobility  co2emission  ETV
37146	2090794 12632 14366 32742 116.75 228.25 447 0.973 11.648172402475 809.59396353784 3148.9631450903
37145	2103426 11050 14366 32742 116.75 228.25 447 -7.03919506073 4 38.341367721558 476.33694168539
37144	2114476 11441 14329 32742 116.5 228.25 448 0 15.64999961853 2177.4668385983 30628.127941716
37143	2125917 15646 14292 32742 116.25 228.25 449 486.85000610352 733.04777526855 226777.40054321 115728253.35411
37142	2141563 15712 14292 32742 116.25 228.25 449 486.63604736328 785.82187652588 235765.55635834 126106297.87213
37160	2157275 12426 15221 32742 122.25 228.25 425 0.96997852711604 12.44402232946 820.51727626274 3509.3440228879
37159	2169701 11997 15221 32742 122.25 228.25 425 -3.8197631835938 2.5 42.585195541382 406.76221582238
37158	2181698 11871 15180 32742 122 228.25 426 0 16.75 2207.1274064369 32178.415050158
37157	2193569 14945 15139 32742 121.75 228.25 427 486.85000610352 486.85000610352 207884.9526062 101208790.44516
37156	2208514 14915 15139 32742 121.75 228.25 427 239.20025634766 785.82187652588 218691.44994354 115952997.22335
37167	2223429 12516 16004 33428 127 231.75 420 0.973 11.54047740176 775.76854291445 3005.8297540586
37166	2235945 12432 16004 33428 127 231.75 420 -3.8350298404694 2.5 37.15309715271 333.64139635314
37165	2248377 12532 15961 33428 126.75 231.75 421 0 15.5 2214.6332671866 28629.758243669
37164	2260909 14771 15918 33428 126.5 231.75 422 486.85000610352 486.85000610352 205450.70257568 100023675.80294
37163	2275680 14744 15918 33428 126.5 231.75 422 236.94708251953 785.82187652588 218164.15756989 117023038.44046
vector 37450  IntersectionExampleScenario.node[78].veinsmobility  posx  ETV
vector 37451  IntersectionExampleScenario.node[78].veinsmobility  posy  ETV
37216	2290578 11608 18066 33801 139 233.75 380 0.973 11.200708441096 723.914076018 2720.7596235266
37215	2302186 11704 18066 33801 139 233.75 380 -3.7292685508728 2.5 36.474081039429 302.22994012721
37214	2313890 11805 18025 33801 138.75 233.75 381 0 15.02499961853 2210.7203884078 28364.730866108
37213	2325695 13371 17983 33801 138.5 233.75 382 486.85000610352 486.85000610352 185976.70233154 90542758.665224
37212	2339066 13318 17983 33801 138.5 233.75 382 238.20263671875 785.82187652588 199039.722435 107937360.8703
vector 37452  IntersectionExampleScenario.node[78].veinsmobility  speed  ETV
vector 37453  IntersectionExampleScenario.node[78].veinsmobility  acceleration  ETV
vector 37454  IntersectionExampleScenario.node[78].veinsmobility  co2emission  ETV
vector 37457  IntersectionExampleScenario.node[79].veinsmobility  posx  ETV
vector 37458  IntersectionExampleScenario.node[79].veinsmobility  posy  ETV
37223	2352785 12169 18275 34356 140.25 236.75 387 0.973 11.450879080643 775.71422151125 3168.0062244476
37222	2364954 12038 18275 34356 140.25 236.75 387 -4.5 2.5 37.832105636597 473.5563683521
37221	2376992 12102 18232 34356 140 236.75 388 0 15.375 2297.0836594561 30040.727509199
37220	2389094 13610 18189 34356 139.75 236.75 389 236.01733398438 486.85000610352 180856.38653564 85323610.821328
37219	2402704 13587 18189 34356 139.75 236.75 389 483.12222290039 807.09531402588 213850.11010742 119994764.66987
vector 37459  IntersectionExampleScenario.node[79].veinsmobility  speed  ETV
vector 37460  IntersectionExampleScenario.node[79].veinsmobility  acceleration  ETV
vector 37461  IntersectionExampleScenario.node[79].veinsmobility  co2emission  ETV
37237	2416538 10803 20146 34815 153 239.25 346 0.97223939240464 11.810082123732 736.417800227 3378.7768205492
37236	2427341 11187 20146 34815 153 239.25 346 -3.8159704208374 2.5000009536743 38.680875778198 408.85437294152
37235	2438528 11088 20115 34815 152.75 239.25 347 0 15.875 2193.3435472585 28270.521539738
37234	2449616 12173 20084 34815 152.5 239.25 348 486.85000610352 735.33074951172 177705.60917664 91915696.355444
37233	2461789 12158 20084 34815 152.5 239.25 348 486.80551147461 785.82187652588 192026.94426727 107851494.91666
vector 37464  IntersectionExampleScenario.node[80].veinsmobility  posx  ETV
vector 37465  IntersectionExampleScenario.node[80].veinsmobility  posy  ETV
vector 37466  IntersectionExampleScenario.node[80].veinsmobility  speed  ETV
37244	2474179 9266 21137 35087 162 240.75 316 0.973 12.099024792222 686.77335375666 3321.9959028963
37243	2483445 9390 21137 35087 162 240.75 316 -3.7995929718018 2.5 41.396924972534 401.23737385891
37242	2492835 9474 21108 35087 161.75 240.75 317 0 16.27499961853 2180.6455103159 28236.133143198
37241	2502309 11124 21081 35087 161.5 240.75 318 486.85000610352 732.08407592773 162583.40898132 84196200.28018
37240	2513433 11116 21081 35087 161.5 240.75 318 486.81298828125 785.82187652588 177389.54079437 100765763.79794
vector 37467  IntersectionExampleScenario.node[80].veinsmobility  acceleration  ETV
vector 37468  IntersectionExampleScenario.node[80].veinsmobility  co2emission  ETV
37265	2524718 9572 21263 35356 163 242.25 318 0.973 11.648172402475 697.34199418277 3163.0189212608
37264	2534290 9214 21263 35356 163 242.25 318 -4.5 2.5 38.511121749878 427.38120791793
37263	2543504 9488 21230 35356 162.75 242.25 319 0 15.64999961853 2311.5298464596 30529.461252829
37262	2552992 11200 21197 35356 162.5 242.25 320 486.85000610352 486.85000610352 155792.00195312 75847337.101758
37261	2564192 11172 21197 35356 162.5 242.25 320 235.4501953125 807.99687957764 172660.75154114 97867858.209729
vector 37471  IntersectionExampleScenario.node[81].veinsmobility  posx  ETV
vector 37472  IntersectionExampleScenario.node[81].veinsmobility  posy  ETV
vector 37473  IntersectionExampleScenario.node[81].veinsmobility  speed  ETV
vector 37474  IntersectionExampleScenario.node[81].veinsmobility  acceleration  ETV
vector 37475  IntersectionExampleScenario.node[81].veinsmobility  co2emission  ETV
37272	2575765 9550 21559 35791 165.25 244.75 319 0.973 11.648172402475 690.18282220978 3102.597989968
37271	2585315 9203 21559 35791 165.25 244.75 319 -4.5 2.5 37.832105636597 383.55940020914
37270	2594518 9461 21524 35791 165 244.75 320 0 15.64999961853 2322.2258656733 30563.303556539
37269	2603979 11236 21489 35791 164.75 244.75 321 486.85000610352 486.85000610352 156278.85195923 76084360.030201
37268	2615215 11216 21489 35791 164.75 244.75 321 237.96008300781 813.79532623291 174427.10679626 99602707.132354
vector 37478  IntersectionExampleScenario.node[82].veinsmobility  posx  ETV
vector 37479  IntersectionExampleScenario.node[82].veinsmobility  posy  ETV
vector 37480  IntersectionExampleScenario.node[82].veinsmobility  speed  ETV
vector 37481  IntersectionExampleScenario.node[82].veinsmobility  acceleration  ETV
vector 37482  IntersectionExampleScenario.node[82].veinsmobility  co2emission  ETV
37328	2626832 7694 24907 36220 187.25 247.25 241 0.973 11.200708441096 594.60794880349 2745.3393531964
37327	2634526 8209 24907 36220 187.25 247.25 241 -3.8074469566345 2.5 36.98334312439 306.81112584528
37326	2642735 8250 24868 36220 187 247.25 242 0 15.324119567871 2216.0811981261 27966.740221228
37325	2650985 8505 24829 36220 186.75 247.25 243 486.85000610352 486.85000610352 118304.55148315 57596571.611647
37324	2659490 8484 24829 36220 186.75 247.25 243 236.75366210938 785.82187652588 130224.49086761 74127020.36788
vector 37485  IntersectionExampleScenario.node[83].veinsmobility  posx  ETV
vector 37486  IntersectionExampleScenario.node[83].veinsmobility  posy  ETV
vector 37487  IntersectionExampleScenario.node[83].veinsmobility  speed  ETV
vector 37492  IntersectionExampleScenario.node[84].veinsmobility  posx  ETV
vector 37493  IntersectionExampleScenario.node[84].veinsmobility  posy  ETV
vector 37488  IntersectionExampleScenario.node[83].veinsmobility  acceleration  ETV
vector 37489  IntersectionExampleScenario.node[83].veinsmobility  co2emission  ETV
vector 37494  IntersectionExampleScenario.node[84].veinsmobility  speed  ETV
vector 37495  IntersectionExampleScenario.node[84].veinsmobility  acceleration  ETV
vector 37496  IntersectionExampleScenario.node[84].veinsmobility  co2emission  ETV
37335	2668776 6930 25896 36571 194 249.25 222 0.93438186594183 12.26218747632 634.23323986956 3448.3418946112
37334	2675706 7393 25896 36571 194 249.25 222 -3.8913822174072 2.5 41.057416915894 432.26036890734
37333	2683099 7447 25859 36571 193.75 249.25 223 1.4944785833359 16.5 2177.2618000507 26743.799388038
37332	2690546 7835 25822 36571 193.5 249.25 224 486.85000610352 731.60087585449 116815.42007446 61910312.741646
37331	2698381 7825 25822 36571 193.5 249.25 224 486.85000610352 785.82187652588 129175.1231308 76279549.914307
vector 37499  IntersectionExampleScenario.node[85].veinsmobility  posx  ETV
vector 37500  IntersectionExampleScenario.node[85].veinsmobility  posy  ETV
vector 37501  IntersectionExampleScenario.node[85].veinsmobility  speed  ETV
vector 37502  IntersectionExampleScenario.node[85].veinsmobility  acceleration  ETV
vector 37503  IntersectionExampleScenario.node[85].veinsmobility  co2emission  ETV
vector 37506  IntersectionExampleScenario.node[86].veinsmobility  posx  ETV
vector 37507  IntersectionExampleScenario.node[86].veinsmobility  posy  ETV
vector 37508  IntersectionExampleScenario.node[86].veinsmobility  speed  ETV
vector 37509  IntersectionExampleScenario.node[86].veinsmobility  acceleration  ETV
vector 37510  IntersectionExampleScenario.node[86].veinsmobility  co2emission  ETV
37349	2707008 7313 26169 37241 195.75 252.75 229 0.973 11.36141391502 614.71710077588 3102.1145413703
37348	2714321 7495 26169 37241 195.75 252.75 229 -4.5 2.5 35.964826583862 448.37913232628
37347	2721816 7732 26128 37241 195.5 252.75 230 2.0463182926178 15.25 2257.4698331356 27045.651625088
37346	2729548 8059 26087 37241 195.25 252.75 231 486.85000610352 733.00245666504 120940.26197815 64396898.779791
37345	2737607 8061 26087 37241 195.25 252.75 231 486.85000610352 805.05782318115 134479.8680191 80417161.847044
vector 37513  IntersectionExampleScenario.node[87].veinsmobility  posx  ETV
vector 37514  IntersectionExampleScenario.node[87].veinsmobility  posy  ETV
vector 37515  IntersectionExampleScenario.node[87].veinsmobility  speed  ETV
vector 37516  IntersectionExampleScenario.node[87].veinsmobility  acceleration  ETV
vector 37517  IntersectionExampleScenario.node[87].veinsmobility  co2emission  ETV
vector 37520  IntersectionExampleScenario.node[88].veinsmobility  posx  ETV
vector 37521  IntersectionExampleScenario.node[88].veinsmobility  posy  ETV
vector 37527  IntersectionExampleScenario.node[89].veinsmobility  posx  ETV
vector 37528  IntersectionExampleScenario.node[89].veinsmobility  posy  ETV
vector 37522  IntersectionExampleScenario.node[88].veinsmobility  speed  ETV
37377	2746455 5968 28329 37545 207.5 254.25 188 0.973 11.648172402475 569.31706354623 3159.2580704767
37376	2752423 6076 28329 37545 207.5 254.25 188 -3.2420711517334 2.5 39.359884262085 330.20325652682
37375	2758499 6295 28279 37545 207.25 254.25 189 5.6500000953674 15.64999961853 2182.0280528069 27321.585672387
37374	2764794 6643 28230 37545 207 254.25 190 486.85000610352 733.00312805176 100559.19706726 54196684.487699
37373	2771437 6634 28230 37545 207 254.25 190 486.85000610352 785.82187652588 109460.18654633 64858424.878715
vector 37523  IntersectionExampleScenario.node[88].veinsmobility  acceleration  ETV
vector 37524  IntersectionExampleScenario.node[88].veinsmobility  co2emission  ETV
vector 37529  IntersectionExampleScenario.node[89].veinsmobility  speed  ETV
vector 37530  IntersectionExampleScenario.node[89].veinsmobility  acceleration  ETV
vector 37531  IntersectionExampleScenario.node[89].veinsmobility  co2emission  ETV
vector 37534  IntersectionExampleScenario.node[90].veinsmobility  posx  ETV
vector 37535  IntersectionExampleScenario.node[90].veinsmobility  posy  ETV
37391	2778641 6429 28480 38172 208.25 257.5 198 0.973 11.370413682012 593.02376509856 3196.9407542286
37390	2785070 6306 28480 38172 208.25 257.5 198 -4.5 2.5 37.32285118103 419.29023948806
37389	2791376 6646 28429 38172 208 257.5 199 5.6500000953674 15.262582778931 2284.1362099648 28022.245133871
37388	2798022 6994 28378 38172 207.75 257.5 200 486.85000610352 734.72091674805 105795.9750061 56997034.630155
37387	2805016 6985 28378 38172 207.75 257.5 200 486.85000610352 808.82032012939 116724.39441681 70359587.552643
vector 37536  IntersectionExampleScenario.node[90].veinsmobility  speed  ETV
vector 37537  IntersectionExampleScenario.node[90].veinsmobility  acceleration  ETV
vector 37538  IntersectionExampleScenario.node[90].veinsmobility  co2emission  ETV
37412	2812248 6048 29545 38266 213.25 258 180 0.973 11.54047740176 532.79119239694 2595.1308728039
37411	2818296 5804 29545 38266 213.25 258 180 -4.5 2.5 37.492597579956 334.50553116093
37410	2824100 6085 29490 38266 213 258 181 5.6500000953674 15.5 2174.5804386139 27590.70996389
37409	2830185 6369 29435 38266 212.75 258 182 486.85000610352 486.85000610352 88606.70111084 43138172.976625
37408	2836554 6344 29435 38266 212.75 258 182 238.28558349609 776.84030151367 96247.612365723 55086515.119631
vector 37541  IntersectionExampleScenario.node[91].veinsmobility  posx  ETV
vector 37542  IntersectionExampleScenario.node[91].veinsmobility  posy  ETV
vector 37543  IntersectionExampleScenario.node[91].veinsmobility  speed  ETV
vector 37544  IntersectionExampleScenario.node[91].veinsmobility  acceleration  ETV
vector 37545  IntersectionExampleScenario.node[91].veinsmobility  co2emission  ETV
37405	2843299 6510 29169 38630 211.5 260 195 0.973 10.772667366676 571.44673067361 2509.8446298253
37404	2849809 6417 29169 38630 211.5 260 195 -4.5 2.5 37.832105636597 340.67311365786
37403	2856226 6700 29114 38630 211.25 260 196 5.6500000953674 15.339242935181 2303.8430328369 29123.122983843
37402	2862926 6893 29059 38630 211 260 197 486.85000610352 486.85000610352 95909.451202393 46693516.90327
37401	2869819 6869 29059 38630 211 260 197 237.60174560547 808.60068511963 108290.14667511 64798909.474838
vector 37548  IntersectionExampleScenario.node[92].veinsmobility  posx  ETV
vector 37549  IntersectionExampleScenario.node[92].veinsmobility  posy  ETV
vector 37550  IntersectionExampleScenario.node[92].veinsmobility  speed  ETV
vector 37551  IntersectionExampleScenario.node[92].veinsmobility  acceleration  ETV
vector 37552  IntersectionExampleScenario.node[92].veinsmobility  co2emission  ETV
37419	2877089 6511 29762 39111 214.25 262.75 195 0.973 10.438254136316 536.65603466965 2122.0243400189
37418	2883600 6533 29762 39111 214.25 262.75 195 -4.5 2.5 35.455564498901 228.80556729176
37417	2890133 6702 29707 39111 214 262.75 196 5.6500000953674 14.790127754211 2330.2505517006 29320.476320356
37416	2896835 6896 29652 39111 213.75 262.75 197 486.85000610352 486.85000610352 95909.451202393 46693516.90327
37415	2903731 6877 29652 39111 213.75 262.75 197 235.00610351562 812.76285552979 107189.99633789 63695890.806441
37426	2910608 5817 31030 39316 220.25 264 176 0.973 11.820044634473 530.72706709737 2517.7883272879
37425	2916425 6076 31030 39316 220.25 264 176 -2.9140472412109 2.5 40.455297470093 207.51397308342
37424	2922501 6025 30975 39316 220 264 177 5.6500000953674 15.888824462891 2273.7762007713 30492.419932719
37423	2928526 6229 30922 39316 219.75 264 178 486.85000610352 486.85000610352 86659.301086426 42190081.262853
37422	2934755 6210 30922 39316 219.75 264 178 236.66973876953 799.87004852295 94278.978775024 54505605.877053
vector 37555  IntersectionExampleScenario.node[93].veinsmobility  posx  ETV
vector 37556  IntersectionExampleScenario.node[93].veinsmobility  posy  ETV
vector 37557  IntersectionExampleScenario.node[93].veinsmobility  speed  ETV
vector 37558  IntersectionExampleScenario.node[93].veinsmobility  acceleration  ETV
vector 37559  IntersectionExampleScenario.node[93].veinsmobility  co2emission  ETV
vector 37562  IntersectionExampleScenario.node[94].veinsmobility  posx  ETV
vector 37563  IntersectionExampleScenario.node[94].veinsmobility  posy  ETV
vector 37569  IntersectionExampleScenario.node[95].veinsmobility  posx  ETV
vector 37570  IntersectionExampleScenario.node[95].veinsmobility  posy  ETV
vector 37564  IntersectionExampleScenario.node[94].veinsmobility  speed  ETV
vector 37565  IntersectionExampleScenario.node[94].veinsmobility  acceleration  ETV
vector 37566  IntersectionExampleScenario.node[94].veinsmobility  co2emission  ETV
vector 37571  IntersectionExampleScenario.node[95].veinsmobility  speed  ETV
vector 37576  IntersectionExampleScenario.node[96].veinsmobility  posx  ETV
vector 37577  IntersectionExampleScenario.node[96].veinsmobility  posy  ETV
vector 37583  IntersectionExampleScenario.node[97].veinsmobility  posx  ETV
vector 37584  IntersectionExampleScenario.node[97].veinsmobility  posy  ETV
vector 37572  IntersectionExampleScenario.node[95].veinsmobility  acceleration  ETV
vector 37573  IntersectionExampleScenario.node[95].veinsmobility  co2emission  ETV
vector 37578  IntersectionExampleScenario.node[96].veinsmobility  speed  ETV
vector 37585  IntersectionExampleScenario.node[97].veinsmobility  speed  ETV
vector 37579  IntersectionExampleScenario.node[96].veinsmobility  acceleration  ETV
vector 37580  IntersectionExampleScenario.node[96].veinsmobility  co2emission  ETV
vector 37586  IntersectionExampleScenario.node[97].veinsmobility  acceleration  ETV
vector 37587  IntersectionExampleScenario.node[97].veinsmobility  co2emission  ETV
vector 37590  IntersectionExampleScenario.node[98].veinsmobility  posx  ETV
vector 37591  IntersectionExampleScenario.node[98].veinsmobility  posy  ETV
vector 37592  IntersectionExampleScenario.node[98].veinsmobility  speed  ETV
vector 37593  IntersectionExampleScenario.node[98].veinsmobility  acceleration  ETV
vector 37594  IntersectionExampleScenario.node[98].veinsmobility  co2emission  ETV
37251	2943371 12205 21166 40345 162.25 270 432 0.973 11.90022389248 804.13698070338 3304.8810432535
37250	2955576 10983 21166 40345 162.25 270 432 -8.6357612609863 4 39.020376205444 507.82205708136
37249	2966559 11137 21137 40345 162 270 433 0 16 2207.987319231 31650.641637973
37248	2977696 15158 21108 40345 161.75 270 434 184.17810058594 732.41050720215 200972.03627014 97209959.387408
37247	2992854 15189 21108 40345 161.75 270 434 486.85000610352 486.85000610352 211292.90264893 102867950.94426
37293	3008043 11473 22373 40439 170.75 270.5 400 0.973 11.450879080643 757.15602232749 3036.6549233443
37292	3019516 10450 22373 40439 170.75 270.5 400 -7.3363361358643 4 37.15309715271 473.80888843942
37291	3029966 10532 22334 40439 170.5 270.5 401 0 15.375 2210.7345151901 30877.913571353
37290	3040498 14056 22295 40439 170.25 270.5 402 236.75714111328 785.82187652588 203967.80741119 107738694.82048
37289	3054554 14071 22295 40439 170.25 270.5 402 483.14999389648 483.14999389648 194226.29754639 93840434.474074
vector 37597  IntersectionExampleScenario.node[99].veinsmobility  posx  ETV
vector 37598  IntersectionExampleScenario.node[99].veinsmobility  posy  ETV
37258	3068779 12658 21230 40673 162.75 271.75 437 0.973 11.810082123732 811.23249681492 3209.0285340108
37257	3081437 11416 21230 40673 162.75 271.75 437 -4.5 2.5 38.511121749878 482.39943250766
37256	3092853 11657 21197 40673 162.5 271.75 438 0 15.875 2284.3875544956 31784.761291604
37255	3104510 15105 21166 40673 162.25 271.75 439 160.43438720703 483.14999389648 191029.65405273 85900560.885443
37254	3119615 15362 21166 40673 162.25 271.75 439 486.85000610352 734.2550201416 221953.51721191 113416725.87656
vector 37599  IntersectionExampleScenario.node[99].veinsmobility  speed  ETV
37307	3135055 11616 23009 40720 174.75 272 390 0.973 11.36141391502 741.18782361684 2936.128573027
37306	3146671 10852 23009 40720 174.75 272 390 -4.5 2.5 36.98334312439 431.00418714176
37305	3157523 10947 22966 40720 174.5 272 391 0 15.25 2120.2270077085 28689.992591071
37304	3168470 13516 22923 40720 174.25 272 392 486.85000610352 770.58750915527 207838.16558838 112093504.06369
37303	3181986 13711 22923 40720 174.25 272 392 237.36639404297 483.14999389648 181072.75976562 84825325.418697
vector 37600  IntersectionExampleScenario.node[99].veinsmobility  acceleration  ETV
vector 37601  IntersectionExampleScenario.node[99].veinsmobility  co2emission  ETV
37321	3195866 10820 24607 41002 185.25 273.5 354 0.973 11.648172402475 716.7302873355 3069.7884528566
37320	3206686 10865 24607 41002 185.25 273.5 354 -3.8631670475006 2.5000009536743 38.511121749878 341.03193384354
37319	3217551 10986 24570 41002 185 273.5 355 0 15.64999961853 2220.241911443 29600.816643826
37318	3228537 12325 24533 41002 184.75 273.5 356 184.17810058594 734.14485168457 161141.58682251 77115845.908063
37317	3240862 12460 24533 41002 184.75 273.5 356 486.85000610352 486.85000610352 173318.60217285 84380162.525706
37300	3253322 12136 22923 41002 174.25 273.5 398 0.973 11.90022389248 807.81302526627 3342.6662746352
37299	3265458 11778 22923 41002 174.25 273.5 398 -4.5 2.5 40.887662887573 496.53724828893
37298	3277236 11922 22882 41002 174 273.5 399 0 16 2239.6175205307 30917.877228433
37297	3289158 13950 22841 41002 173.75 273.5 400 482.96453857422 795.46562957764 216125.17747498 119281164.94786
37296	3303108 13998 22841 41002 173.75 273.5 400 483.14999389648 731.96379089355 201273.68466187 102444080.87768
37363	3317106 9584 26773 41326 199.25 275.25 305 0.973 12.099024792222 690.13720028171 3219.6913333427
37362	3326690 9916 26773 41326 199.25 275.25 305 -3.7411968708038 2.5 41.227170944214 349.55848932683
37361	3336606 9969 26728 41326 199 275.25 306 0 16.27499961853 2223.9165003439 30410.915187715
37360	3346575 10705 26683 41326 198.75 275.25 307 235.33728027344 785.82187652588 160249.11267853 87709452.239473
37359	3357280 10745 26683 41326 198.75 275.25 307 483.14999389648 483.14999389648 148327.04812622 71664212.396867
37384	3368025 8760 28378 41416 207.75 275.75 273 0.973 12.099024792222 652.68032564021 3175.2856828111
37383	3376785 9175 28378 41416 207.75 275.75 273 -3.9104225635529 2.5 40.038900375366 353.76152310719
37382	3385960 9247 28329 41416 207.5 275.75 274 0 16.27499961853 2212.5232324228 29535.357257125
37381	3395207 9583 28279 41416 207.25 275.75 275 184.17810058594 486.85000610352 115217.74578857 50204128.916186
37380	3404790 9608 28279 41416 207.25 275.75 275 236.15411376953 486.85000610352 125642.12457275 58531378.325519
vector 37604  IntersectionExampleScenario.node[100].veinsmobility  posx  ETV
vector 37605  IntersectionExampleScenario.node[100].veinsmobility  posy  ETV
vector 37606  IntersectionExampleScenario.node[100].veinsmobility  speed  ETV
37447	3414633 6933 31739 41769 223.5 277.75 218 0.973 12.099024792222 601.18279670029 3272.2804600565
37446	3421566 7270 31739 41769 223.5 277.75 218 -3.7163028717041 2.5 40.378400802612 363.66667325427
37445	3428836 7361 31684 41769 223.25 277.75 219 0 16.27499961853 2213.8760179579 29561.577289782
37444	3436197 7674 31629 41769 223 277.75 220 482.92965698242 785.82187652588 123445.5357132 71096529.607425
37443	3443871 7693 31629 41769 223 277.75 220 483.14999389648 734.24459838867 114511.83155823 60671233.439747
vector 37607  IntersectionExampleScenario.node[100].veinsmobility  acceleration  ETV
vector 37608  IntersectionExampleScenario.node[100].veinsmobility  co2emission  ETV
[...]
41044	29650859 10349 269187 290247 1699.75 1800 402 -8.8170804977417 4 5.3999996185303 394.05256164635
41043	29661208 10540 269140 290247 1699.5 1800 403 0 15.02499961853 1198.2503838539 15856.776464885
41042	29671748 14947 269093 290247 1699.25 1800 404 478.44818115234 483.14999389648 195175.88088989 94291200.640984
41041	29686695 14923 269093 290247 1699.25 1800 404 184.17810058594 481.52880859375 177436.775177 80175540.557271
41059	29701618 11633 269897 290247 1703.5 1800 387 0.973 11.200708441096 566.67092375345 1675.3665922546
41058	29713251 11062 269897 290247 1703.5 1800 387 -4.5 2.5 -9.8551988601685 311.95606843892
41057	29724313 11057 269848 290247 1703.25 1800 388 0 15.521925926208 1164.7001047693 16099.602781851
41056	29735370 14391 269799 290247 1703 1800 389 483.14999389648 483.14999389648 187945.34762573 90805793.558246
41055	29749761 14369 269799 290247 1703 1800 389 176.21716308594 466.70352172852 168018.38021851 74788094.949916
41066	29764130 10369 271960 290247 1714.75 1800 342 0.973 12.099024792222 507.98227396661 1773.7751529673
41065	29774499 10548 271960 290247 1714.75 1800 342 -3.9864277839661 2.5 -20.874642848969 207.20490150738
41064	29785047 10440 271917 290247 1714.5 1800 343 0 16.27499961853 1098.2709805481 13885.179108315
41063	29795487 12728 271874 290247 1714.25 1800 344 483.14999389648 483.14999389648 166203.59790039 80301267.311148
41062	29808215 12691 271874 290247 1714.25 1800 344 184.17810058594 458.86654663086 145556.42526245 63448240.503371
41073	29820906 10718 272093 290247 1715.5 1800 339 0.973 11.960420211412 535.35037004003 1837.048289338
41072	29831624 10957 272093 290247 1715.5 1800 339 -4.5 2.5000038146973 -22.492957063019 343.02085549063
41071	29842581 10855 272048 290247 1715.25 1800 340 0 16.083347320557 1163.3667246485 14886.686427741
41070	29853436 12615 272003 290247 1715 1800 341 483.14999389648 483.14999389648 164754.1479187 79600965.561341
41069	29866051 12576 272003 290247 1715 1800 341 161.1796875 452.41421508789 140348.04644775 59950802.970238
41094	29878627 10534 272694 290247 1718.75 1800 326 0.973 11.648172402475 499.50626462739 1663.375293797
41093	29889161 10954 272694 290247 1718.75 1800 326 -4.5 2.5 -22.549885634333 292.8266716276
41092	29900115 10765 272647 290247 1718.5 1800 327 0 15.64999961853 1138.9977109721 14645.093190662
41091	29910880 12136 272600 290247 1718.25 1800 328 483.14999389648 483.14999389648 158473.19799805 76566324.645513
41090	29923016 12105 272600 290247 1718.25 1800 328 161.2861328125 446.01312255859 133127.13635254 56050994.066849
41108	29935121 10193 273434 290247 1722.75 1800 310 0.973 11.200708441096 466.76067817132 1485.9234734218
41107	29945314 10640 273434 290247 1722.75 1800 310 -4.5 2.5 -22.549508854747 235.8433895976
41106	29955954 10447 273387 290247 1722.5 1800 311 0 15.02499961853 1091.5308551881 13285.749922747
41105	29966401 11544 273339 290247 1722.25 1800 312 483.14999389648 483.14999389648 150742.7980957 72831381.979878
41104	29977945 11516 273339 290247 1722.25 1800 312 166.53210449219 439.6083984375 124509.91827393 51518624.17892
41136	29989461 8047 275190 290247 1732.25 1800 272 0.973 11.200708441096 432.54834746043 1478.4440920448
41135	29997508 7291 275190 290247 1732.25 1800 272 -8.6476802825928 2.5 -22.60000038147 324.72348218583
41134	30004799 7521 275143 290247 1732 1800 273 0 15.02499961853 1145.9794850349 15545.827204431
41133	30012320 10137 275096 290247 1731.75 1800 274 486.85000610352 486.85000610352 133396.90167236 64944282.39338
41132	30022457 10130 275096 290247 1731.75 1800 274 498.39999389648 785.82187652588 149732.48731232 83866841.639318
41178	30032587 6886 278032 290247 1747 1800 213 0.973 11.648172402475 376.75898804692 1523.1028510198
41177	30039473 7621 278032 290247 1747 1800 213 -3.9381833076477 2.5 -22.60000038147 195.39446134514
41176	30047094 7445 277981 290247 1746.75 1800 214 0 15.64999961853 1123.1306198472 14048.436401706
41175	30054539 7954 277930 290247 1746.5 1800 215 486.85000610352 486.85000610352 104672.75131226 50959929.615243
41174	30062493 7931 277930 290247 1746.5 1800 215 504.79940795898 785.82187652588 121477.73917389 70335741.523542
41185	30070424 6546 278856 290247 1751 1800 197 0.973 11.043389642696 371.77822231426 1519.3317869499
41184	30076970 7308 278856 290247 1751 1800 197 -4.5 2.5 -22.180592775345 283.45238743603
41183	30084278 7306 278801 290247 1750.75 1800 198 0 15.739031791687 1093.1014166493 12944.931873198
41182	30091584 7362 278746 290247 1750.5 1800 199 486.85000610352 486.85000610352 96883.1512146 47167562.760155
41181	30098946 7345 278746 290247 1750.5 1800 199 518.36965942383 792.02188110352 116704.40942383 69974062.767112
41199	30106291 6496 278970 290247 1751.5 1800 195 0.973 11.648172402475 369.68759401083 1555.8241945443
41198	30112787 7270 278970 290247 1751.5 1800 195 -4.5 2.5 -22.374637901783 284.55084445233
41197	30120057 7216 278913 290247 1751.25 1800 196 0 16.065490722656 1002.5330214174 12203.900373952
41196	30127273 7287 278856 290247 1751 1800 197 486.85000610352 486.85000610352 95909.451202393 46693516.90327
41195	30134560 7248 278856 290247 1751 1800 197 511.26766967773 762.66562652588 111622.84515381 64446226.577135
41206	30141808 5945 279868 290247 1755.5 1800 179 0.973 11.648172402475 334.34469159218 1458.3650429668
41205	30147753 6570 279868 290247 1755.5 1800 179 -4.5 2.5 -22.476817958057 252.13620830096
41204	30154323 6612 279813 290247 1755.25 1800 180 0 15.64999961853 1076.5870938972 12783.581911502
41203	30160935 6695 279758 290247 1755 1800 181 486.85000610352 486.85000610352 88119.851104736 42901150.048182
41202	30167630 6665 279758 290247 1755 1800 181 525.76300048828 795.15131378174 107588.71977234 65325992.512425
41220	30174295 5043 280511 290247 1758.5 1800 167 0.973 11.200708441096 308.9881385067 1314.3374215208
41219	30179338 5443 280511 290247 1758.5 1800 167 -3.8712148666382 2.5 -22.60000038147 181.50436348801
41218	30184781 5439 280458 290247 1758.25 1800 168 0 15.02499961853 989.50442440808 11908.533601833
41217	30190220 6251 280405 290247 1758 1800 169 483.14999389648 483.14999389648 81652.348968506 39450331.905767
41216	30196471 6230 280405 290247 1758 1800 169 184.17810058594 431.61312866211 62531.417663574 24256731.730755
41241	30202701 5299 281199 290247 1761.75 1800 154 0.973 10.609412080031 313.11753441222 1308.8751185781
41240	30208000 5703 281199 290247 1761.75 1800 154 -4.5 2.5 -22.60000038147 304.22173797804
41239	30213703 5657 281146 290247 1761.5 1800 155 0 15.184930801392 976.11604164075 11657.211329252
41238	30219360 5772 281093 290247 1761.25 1800 156 483.14999389648 483.14999389648 75371.399047852 36415690.989939
41237	30225132 5752 281093 290247 1761.25 1800 156 172.9296875 417.59509277344 54099.891479492 19901486.119682
41248	30230884 4845 281308 290247 1762.25 1800 152 0.973 11.200708441096 305.83866130801 1352.7448070868
41247	30235729 4911 281308 290247 1762.25 1800 152 -4.5 2.5 -22.60000038147 301.24989795698
41246	30240640 5070 281254 290247 1762 1800 153 0 15.585792541504 906.81915611029 11219.444867559
41245	30245710 5697 281199 290247 1761.75 1800 154 483.14999389648 483.14999389648 74405.099060059 35948823.156735
41244	30251407 5167 281199 290247 1761.75 1800 154 196.84918212891 424 56546.096710205 21634068.522836
41255	30256574 4669 281725 290247 1764.25 1800 144 0.973 11.648172402475 298.06021113985 1468.1856398513
41254	30261243 5155 281725 290247 1764.25 1800 144 -3.5992050170898 2.5 -22.257918149233 211.41386383581
41253	30266398 5342 281672 290247 1764 1800 145 0 15.64999961853 1011.0958241243 12094.934052778
41252	30271740 5401 281619 290247 1763.75 1800 146 486.85000610352 486.85000610352 71080.100891113 34605347.552677
41251	30277141 5388 281619 290247 1763.75 1800 146 533.05633544922 785.82187652588 88687.816337585 54936551.828187
41262	30282529 4799 281833 290247 1764.75 1800 142 0.973 11.489025695312 304.58085229619 1386.0078761351
41261	30287328 5045 281833 290247 1764.75 1800 142 -4.5 2.5 -22.380024403334 312.56668134747
41260	30292373 5138 281780 290247 1764.5 1800 143 0 15.567762374878 990.96780848037 13094.172186969
41259	30297511 5328 281725 290247 1764.25 1800 144 483.14999389648 483.14999389648 69573.599121094 33614483.990713
41258	30302839 5307 281725 290247 1764.25 1800 144 163.01599121094 411.13522338867 49169.517974854 17839485.829909
41269	30308146 4838 282194 290247 1766.5 1800 135 0.973 11.36141391502 450.00562479822 2524.4502350824
41268	30312984 4473 282194 290247 1766.5 1800 135 -3.3769397735596 2.5 38.171682357788 272.17257016715
41267	30317457 4717 282141 290247 1766.25 1800 136 5.6500000953674 15.25 1803.6178994179 25170.213382488
41266	30322174 5034 282088 290247 1766 1800 137 184.17810058594 483.26007080078 52326.200439453 21517070.947892
41265	30327208 5064 282088 290247 1766 1800 137 486.85000610352 638.23983764648 69895.570343018 35903249.340136
41276	30332272 4311 282304 290247 1767 1800 133 0.97223939240464 11.648172402475 289.16388321951 1420.0565572119
41275	30336583 4680 282304 290247 1767 1800 133 -4.5 2.5 -22.60000038147 275.14263036304
41274	30341263 4672 282249 290247 1766.75 1800 134 0 15.64999961853 1036.2746995986 13385.797531378
41273	30345935 4994 282194 290247 1766.5 1800 135 486.85000610352 486.85000610352 65724.750823975 31998095.339804
41272	30350929 4982 282194 290247 1766.5 1800 135 541.00946044922 800.04531860352 83939.261375427 53273642.245455
41283	30355911 4538 282629 290247 1768.5 1800 127 0.973 11.90022389248 462.72190408304 2952.5585738731
41282	30360449 4364 282629 290247 1768.5 1800 127 -4.5 2.5 39.875608444214 296.61573068926
41281	30364813 4439 282574 290247 1768.25 1800 128 5.6500000953674 16 1766.6092319489 25326.575991154
41280	30369252 4728 282519 290247 1768 1800 129 166.078125 486.87512207031 47247.890777588 18957527.593864
41279	30373980 4771 282519 290247 1768 1800 129 365.64254760742 486.85000610352 60779.954650879 28766369.607483
41290	30378751 3964 282905 290247 1769.75 1800 122 0.973 11.38037064624 305.9947878827 1596.9361166009
41289	30382715 4372 282905 290247 1769.75 1800 122 -4.5 2.5 -22.453206151724 319.79095010619
41288	30387087 4524 282850 290247 1769.5 1800 123 0 16.364521026611 1007.4482785929 12365.957656707
41287	30391611 4588 282794 290247 1769.25 1800 124 486.85000610352 486.85000610352 60369.400756836 29390843.126931
41286	30396199 4581 282794 290247 1769.25 1800 124 554.76361083984 807.15704345703 80220.948303223 52896598.759682
41297	30400780 3862 283185 290247 1771 1800 117 0.973 11.200708441096 257.89838650858 1261.1540415127
41296	30404642 4262 283185 290247 1771 1800 117 -3.9152390956879 2.5 -22.524947978556 201.22062248098
41295	30408904 4330 283127 290247 1770.75 1800 118 0 15.02499961853 879.61358661391 10733.641464837
41294	30413234 4402 283070 290247 1770.5 1800 119 483.14999389648 483.14999389648 57494.849273682 27778636.075658
41293	30417636 4369 283070 290247 1770.5 1800 119 184.17810058594 404.46795654297 39827.668823242 14021994.521662
41304	30422005 3873 283242 290247 1771.25 1800 116 0.973 11.648172402475 268.79134473163 1394.4792164659
41303	30425878 4272 283242 290247 1771.25 1800 116 -4.5 2.5 -22.462815791368 262.61778698983
41302	30430150 4365 283185 290247 1771 1800 117 0.034296147525311 15.64999961853 917.81185624003 11605.815094212
41301	30434515 4365 283127 290247 1770.75 1800 118 486.85000610352 486.85000610352 57448.300720215 27968705.556273
41300	30438880 4344 283127 290247 1770.75 1800 118 548.10961914062 778.25588226318 73489.342185974 46530672.553068
41311	30443224 3590 283702 290247 1773.25 1800 108 0.973 11.200708441096 265.80492532177 1323.3574240571
41310	30446814 3914 283702 290247 1773.25 1800 108 -4.5 2.5 -22.229770421982 266.85890427637
41309	30450728 4001 283643 290247 1773 1800 109 0 15.592468261719 916.2691120673 11613.804767938
41308	30454729 4069 283584 290247 1772.75 1800 110 483.14999389648 483.14999389648 53146.499328613 25677730.826239
41307	30458798 4033 283584 290247 1772.75 1800 110 167.29217529297 397.03369140625 34885.301147461 11767653.842564
41318	30462831 3251 284604 290247 1777.25 1800 92 0.973 12.099024792222 291.69311657259 1664.1574395779
41317	30466082 3222 284604 290247 1777.25 1800 92 -3.8786468505859 2.5 8.3999996185303 221.62588411718
41316	30469304 3247 284545 290247 1777 1800 93 5.6500000953674 16.27499961853 1235.0693616867 17648.753954183
41315	30472551 3466 284488 290247 1776.75 1800 94 486.83453369141 785.82187652588 59202.40247345 38224601.863505
41314	30476017 3477 284488 290247 1776.75 1800 94 471.00457763672 483.14999389648 45361.275054932 21890247.564043
41325	30479494 3200 284662 290247 1777.5 1800 91 0.97223939240464 11.648172402475 273.70799391695 1467.0710023071
41324	30482694 2942 284662 290247 1777.5 1800 91 -44.006763458252 2.5 -22.60000038147 2097.9297146232
41323	30485636 3234 284604 290247 1777.25 1800 92 0 15.64999961853 1150.3437652588 16803.305631142
41322	30488870 3417 284545 290247 1777 1800 93 184.17810058594 471.60000610352 31123.416351318 11283399.081441
41321	30492287 3439 284545 290247 1777 1800 93 486.85000610352 486.85000610352 45277.050567627 22043132.345198
41332	30495726 2970 285064 290247 1779.25 1800 84 0.973 11.648172402475 267.64034920984 1498.5041658593
41331	30498696 2992 285064 290247 1779.25 1800 84 -3.0980606079102 2.5 10.305116653442 185.39267001742
41330	30501688 3121 285006 290247 1779 1800 85 5.6500000953674 15.64999961853 1183.571059227 17029.272567307
41329	30504809 3174 284947 290247 1778.75 1800 86 510.60708618164 803.92188262939 57165.747360229 38724267.709871
41328	30507983 3181 284947 290247 1778.75 1800 86 483.14999389648 483.14999389648 41550.899475098 20075316.827787
41339	30511164 2891 285239 290247 1780 1800 81 0.973 11.210152533253 270.59142537052 1441.243663386
41338	30514055 2970 285239 290247 1780 1800 81 -4.5 2.5 12.630990982056 210.40054399839
41337	30517025 3024 285180 290247 1779.75 1800 82 5.6500000953674 16.053014755249 1176.8585443497 17539.425425518
41336	30520049 3062 285121 290247 1779.5 1800 83 526.75561523438 817.87032318115 56546.159706116 39221559.802846
41335	30523111 3070 285121 290247 1779.5 1800 83 483.14999389648 483.14999389648 40101.449493408 19375015.07798
41346	30526181 2816 285361 290247 1780.5 1800 79 0.973 10.756497587458 233.29296668031 1166.6891793871
41345	30528997 2719 285361 290247 1780.5 1800 79 -2.9406318664551 2.5 10.517721176147 146.447014479
41344	30531716 2946 285300 290247 1780.25 1800 80 5.6500000953674 14.39999961853 1044.3113698959 14048.382831615
41343	30534662 2966 285239 290247 1780 1800 81 171.40313720703 429.75036621094 23879.047271729 7570748.5295443
41342	30537628 2995 285239 290247 1780 1800 81 486.85000610352 486.85000610352 39434.850494385 19198857.203882
41353	30540623 2439 286031 290247 1783.25 1800 68 0.973 10.756497587458 233.96112908921 1228.2252455432
41352	30543062 2263 286031 290247 1783.25 1800 68 -4.5 2.5 13.772367477417 185.56612366884
41351	30545325 2539 285970 290247 1783 1800 69 5.6500000953674 15.363326072693 949.74308109283 13538.713384724
41350	30547864 2577 285909 290247 1782.75 1800 70 163.56719970703 397.94818115234 19033.040588379 5554435.0988443
41349	30550441 2589 285909 290247 1782.75 1800 70 486.85000610352 486.85000610352 34079.500427246 16591604.991009
41360	30553030 1862 287039 290247 1787.5 1800 51 0.973 11.648172402475 203.27346802863 1330.1815186937
41359	30554892 1818 287039 290247 1787.5 1800 51 -0.45709991455078 2.5 37.972627639771 100.60442518721
41358	30556710 1907 286978 290247 1787.25 1800 52 5.6500000953674 15.64999961853 714.17224311829 10208.329554966
41357	30558617 1954 286917 290247 1787 1800 53 169.47711181641 342.95098876953 13079.760803223 3384986.9222023
41356	30560571 1959 286917 290247 1787 1800 53 486.85000610352 486.85000610352 25803.050323486 12562215.207479
41367	30562530 1318 287945 290247 1791.25 1800 36 0.973 11.042494666492 171.93654725499 1200.8557423501
41366	30563848 1199 287945 290247 1791.25 1800 36 -3.0805702209473 2.5000019073486 38.755083084106 105.39976088572
41365	30565047 1346 287884 290247 1791 1800 37 5.6500000953674 15.6496925354 417.96200847626 5188.9427208141
41364	30566393 1400 287823 290247 1790.75 1800 38 168.86663818359 268.3203125 7931.8251953125 1690339.4362527
41363	30567793 1405 287823 290247 1790.75 1800 38 486.85000610352 486.85000610352 18500.300231934 9006871.2808337
41374	30569198 1141 288253 290247 1792.5 1800 31 1.1319351608255 11.648172402475 162.90552530973 1244.9760265546
41373	30570339 1010 288253 290247 1792.5 1800 31 -0.28734588623047 2.5 38.865980148315 100.18868083979
41372	30571349 1173 288191 290247 1792.25 1800 32 5.6500000953674 15.64999961853 412.34033870697 5653.9634934569
41371	30572522 1216 288128 290247 1792 1800 33 199.34039306641 297.52526855469 7935.0053100586 1940028.1511564
41370	30573738 1219 288128 290247 1792 1800 33 486.85000610352 486.85000610352 16066.050201416 7821756.6386188
41381	30574957 1023 288440 290247 1793.25 1800 28 0.973 11.648172402475 154.79814713868 1225.8489602072
41380	30575980 887 288440 290247 1793.25 1800 28 -0.41465759277344 2.5 38.393899917603 100.39260754978
41379	30576867 1061 288377 290247 1793 1800 29 5.6500000953674 15.64999961853 365.07864952087 4909.8694452706
41378	30577928 1109 288314 290247 1792.75 1800 30 483.14999389648 483.14999389648 14494.499816895 7003017.4980652
41377	30579037 1084 288314 290247 1792.75 1800 30 184.17810058594 270.3271484375 6594.3070068359 1471851.2682936
41388	30580121 689 289011 290247 1795.5 1800 19 0.973 11.648172402475 137.79726048746 1193.1454227158
41387	30580810 528 289011 290247 1795.5 1800 19 -0.37222290039062 2.5 39.139234542847 100.26031191426
41386	30581338 730 288946 290247 1795.25 1800 20 5.6500000953674 15.64999961853 227.52890014648 2807.661091024
41385	30582068 771 288881 290247 1795 1800 21 167.09100341797 218.80676269531 3940.12109375 744782.86881556
41384	30582839 775 288881 290247 1795 1800 21 486.85000610352 486.85000610352 10223.850128174 4977481.4973029
41395	30583614 589 289210 290247 1796.25 1800 16 5.2162187258585 11.648172402475 134.25053707584 1188.8536053759
41394	30584203 412 289210 290247 1796.25 1800 16 2.4999980926514 2.5 39.999998092651 99.99999046326
41393	30584615 617 289143 290247 1796 1800 17 5.6500000953674 15.64999961853 181.04999542236 2087.5573869991
41392	30585232 665 289076 290247 1795.75 1800 18 483.14999389648 483.14999389648 8696.6998901367 4201810.4988391
41391	30585897 645 289076 290247 1795.75 1800 18 171.40313720703 211.50311279297 3372.9809570312 634936.20352983
41402	30586542 514 289348 290247 1796.75 1800 14 5.2162187258585 10.756497587458 111.40165623227 927.71781547567
41401	30587056 361 289348 290247 1796.75 1800 14 2.4999980926514 2.5 34.999998092651 87.49999046326
41400	30587417 546 289279 290247 1796.5 1800 15 5.6500000953674 14.39999961853 150.3749961853 1616.8842854023
41399	30587963 592 289210 290247 1796.25 1800 16 486.85000610352 486.85000610352 7789.6000976562 3792366.8550879
41398	30588555 592 289210 290247 1796.25 1800 16 752.92188262939 785.82187652588 12361.947006226 9552865.7013552
41409	30589147 35 290247 290247 1800 1800 1 5.2162187258585 5.2162187258585 5.2162187258585 27.208937795997
41408	30589182 23 290247 290247 1800 1800 1 2.5 2.5 2.5 6.25
41407	30589205 73 290177 290247 1799.75 1800 2 5.6500000953674 6.2750000953674 11.925000190735 71.298127274513
41406	30589278 110 290107 290247 1799.5 1800 3 483.14999389648 483.14999389648 1449.4499816895 700301.74980652
41405	30589388 106 290107 290247 1799.5 1800 3 169.82965087891 171.1640625 510.82336425781 86981.356926806
41413	30589494 35 290247 290247 1800 1800 1 486.85000610352 486.85000610352 486.85000610352 237022.92844299
41412	30589529 35 290247 290247 1800 1800 1 793.78281402588 793.78281402588 793.78281402588 630091.15584284
36900	30589564 646 0 290246 0 1800 31 0 39 762 20314
36901	30590210 667 0 290246 0 1800 31 0 345 5283 1224213
