version 2
run nodebug-3-20200605-16:32:43-20012
attr configname nodebug
attr datetime 20200605-16:32:43
attr experiment nodebug
attr inifile omnetpp.ini
attr iterationvars ""
attr iterationvars2 $repetition=3
attr measurement ""
attr network "\"org.car2x.veins.modules.application.ExtTraCIScenarioManagerLaunchd.IntersectionExampleScenario\""
attr processid 20012
attr repetition 3
attr replication #3
attr resultdir results
attr runnumber 3
attr seedset 3
param **.coreDebug false
param **.debug false
param *.**.nic.mac1609_4.bitrate 18Mbps
param *.**.nic.mac1609_4.txPower 20mW
param *.**.nic.mac1609_4.useServiceChannel false
param *.**.nic.phy80211p.analogueModels "xmldoc(\"config.xml\")"
param *.**.nic.phy80211p.decider "xmldoc(\"config.xml\")"
param *.**.nic.phy80211p.sensitivity -89dBm
param *.**.nic.phy80211p.thermalNoise -110dBm
param *.**.nic.phy80211p.usePropagationDelay true
param *.**.nic.phy80211p.useThermalNoise true
param *.annotations.draw false
param *.connectionManager.alpha 2.0
param *.connectionManager.carrierFrequency "5.890e9 Hz"
param *.connectionManager.pMax 20mW
param *.connectionManager.sat -89dBm
param *.connectionManager.sendDirect true
param *.manager.autoShutdown true
param *.manager.host "\"localhost\""
param *.manager.launchConfig "xmldoc(\"paramics.launchd.xml\")"
param *.manager.margin 25
param *.manager.moduleDisplayString "\"\""
param *.manager.moduleName "\"node\""
param *.manager.moduleType "\"org.car2x.veins.nodes.Car\""
param *.manager.port 9999
param *.manager.updateInterval 250ms
param *.node[*0].veinsmobility.accidentCount 0
param *.node[*0].veinsmobility.accidentDuration 30s
param *.node[*0].veinsmobility.accidentStart 75s
param *.node[*].appl.LiderSelectZoneRadio 55.0
param *.node[*].appl.ShareDataZoneRadio 110.0
param *.node[*].appl.TiempoSemaforo 30.0
param *.node[*].appl.beaconInterval 1s
param *.node[*].appl.beaconPriority 3
param *.node[*].appl.dataOnSch false
param *.node[*].appl.dataPriority 2
param *.node[*].appl.debug false
param *.node[*].appl.headerLength "256 bit"
param *.node[*].appl.maxOffset 0.005s
param *.node[*].appl.sendBeacons false
param *.node[*].appl.sendData true
param *.node[*].applType "\"Dummy\""
param *.node[*].mobilityType "\"TraCIMobility\""
param *.node[*].mobilityType.debug true
param *.node[*].veinsmobility.x 0
param *.node[*].veinsmobility.y 0
param *.node[*].veinsmobility.z 1.895
param *.node[*].veinsmobilityType "\"org.car2x.veins.modules.mobility.traci.TraCIMobility\""
param *.node[*].veinsmobilityType.debug true
param *.playgroundSizeX 8500m
param *.playgroundSizeY 8500m
param *.playgroundSizeZ 50m
param *.world.use2D false
param *.world.useTorus false

scalar IntersectionExampleScenario.node[0].appl 	VehicleRemoved 	0
scalar IntersectionExampleScenario.node[0].appl 	ArrivedAtDest 	1
scalar IntersectionExampleScenario.node[0].appl 	IntersectionEnterTime 	0.75
scalar IntersectionExampleScenario.node[0].appl 	IntersectionExitTime 	22.563853450119
scalar IntersectionExampleScenario.node[0].appl 	NumberOfCollisions 	0
scalar IntersectionExampleScenario.node[0].nic.phy80211p 	busyTime 	0
scalar IntersectionExampleScenario.node[0].nic.mac1609_4 	ReceivedUnicastPackets 	0
scalar IntersectionExampleScenario.node[0].nic.mac1609_4 	ReceivedBroadcasts 	0
scalar IntersectionExampleScenario.node[0].nic.mac1609_4 	SentPackets 	0
scalar IntersectionExampleScenario.node[0].nic.mac1609_4 	SNIRLostPackets 	0
scalar IntersectionExampleScenario.node[0].nic.mac1609_4 	RXTXLostPackets 	0
scalar IntersectionExampleScenario.node[0].nic.mac1609_4 	TotalLostPackets 	0
scalar IntersectionExampleScenario.node[0].nic.mac1609_4 	DroppedPacketsInMac 	0
scalar IntersectionExampleScenario.node[0].nic.mac1609_4 	TooLittleTime 	0
scalar IntersectionExampleScenario.node[0].nic.mac1609_4 	TimesIntoBackoff 	0
scalar IntersectionExampleScenario.node[0].nic.mac1609_4 	SlotsBackoff 	0
scalar IntersectionExampleScenario.node[0].nic.mac1609_4 	NumInternalContention 	0
scalar IntersectionExampleScenario.node[0].nic.mac1609_4 	totalBusyTime 	0
scalar IntersectionExampleScenario.node[0].veinsmobility 	startTime 	0.75
scalar IntersectionExampleScenario.node[0].veinsmobility 	totalTime 	36.75
scalar IntersectionExampleScenario.node[0].veinsmobility 	stopTime 	37.75
scalar IntersectionExampleScenario.node[0].veinsmobility 	minSpeed 	5.6500000953674
scalar IntersectionExampleScenario.node[0].veinsmobility 	maxSpeed 	16.89999961853
scalar IntersectionExampleScenario.node[0].veinsmobility 	totalDistance 	552.3116607666
scalar IntersectionExampleScenario.node[0].veinsmobility 	totalCO2Emission 	125.3698764742
scalar IntersectionExampleScenario.node[3].appl 	VehicleRemoved 	0
scalar IntersectionExampleScenario.node[3].appl 	ArrivedAtDest 	1
scalar IntersectionExampleScenario.node[3].appl 	IntersectionEnterTime 	7.75
scalar IntersectionExampleScenario.node[3].appl 	IntersectionExitTime 	30.573857851385
scalar IntersectionExampleScenario.node[3].appl 	NumberOfCollisions 	0
scalar IntersectionExampleScenario.node[3].nic.phy80211p 	busyTime 	0
scalar IntersectionExampleScenario.node[3].nic.mac1609_4 	ReceivedUnicastPackets 	0
scalar IntersectionExampleScenario.node[3].nic.mac1609_4 	ReceivedBroadcasts 	0
scalar IntersectionExampleScenario.node[3].nic.mac1609_4 	SentPackets 	0
scalar IntersectionExampleScenario.node[3].nic.mac1609_4 	SNIRLostPackets 	0
scalar IntersectionExampleScenario.node[3].nic.mac1609_4 	RXTXLostPackets 	0
scalar IntersectionExampleScenario.node[3].nic.mac1609_4 	TotalLostPackets 	0
scalar IntersectionExampleScenario.node[3].nic.mac1609_4 	DroppedPacketsInMac 	0
scalar IntersectionExampleScenario.node[3].nic.mac1609_4 	TooLittleTime 	0
scalar IntersectionExampleScenario.node[3].nic.mac1609_4 	TimesIntoBackoff 	0
scalar IntersectionExampleScenario.node[3].nic.mac1609_4 	SlotsBackoff 	0
scalar IntersectionExampleScenario.node[3].nic.mac1609_4 	NumInternalContention 	0
scalar IntersectionExampleScenario.node[3].nic.mac1609_4 	totalBusyTime 	0
scalar IntersectionExampleScenario.node[3].veinsmobility 	startTime 	7.75
scalar IntersectionExampleScenario.node[3].veinsmobility 	totalTime 	38.75
scalar IntersectionExampleScenario.node[3].veinsmobility 	stopTime 	46.75
scalar IntersectionExampleScenario.node[3].veinsmobility 	minSpeed 	5.6500000953674
scalar IntersectionExampleScenario.node[3].veinsmobility 	maxSpeed 	15.64999961853
scalar IntersectionExampleScenario.node[3].veinsmobility 	totalDistance 	551.79831695557
scalar IntersectionExampleScenario.node[3].veinsmobility 	totalCO2Emission 	117.30374038964
scalar IntersectionExampleScenario.node[5].appl 	VehicleRemoved 	0
scalar IntersectionExampleScenario.node[5].appl 	ArrivedAtDest 	1
scalar IntersectionExampleScenario.node[5].appl 	IntersectionEnterTime 	10.25
scalar IntersectionExampleScenario.node[5].appl 	IntersectionExitTime 	33.269608467584
scalar IntersectionExampleScenario.node[5].appl 	NumberOfCollisions 	0
scalar IntersectionExampleScenario.node[5].nic.phy80211p 	busyTime 	0
scalar IntersectionExampleScenario.node[5].nic.mac1609_4 	ReceivedUnicastPackets 	0
scalar IntersectionExampleScenario.node[5].nic.mac1609_4 	ReceivedBroadcasts 	0
scalar IntersectionExampleScenario.node[5].nic.mac1609_4 	SentPackets 	0
scalar IntersectionExampleScenario.node[5].nic.mac1609_4 	SNIRLostPackets 	0
scalar IntersectionExampleScenario.node[5].nic.mac1609_4 	RXTXLostPackets 	0
scalar IntersectionExampleScenario.node[5].nic.mac1609_4 	TotalLostPackets 	0
scalar IntersectionExampleScenario.node[5].nic.mac1609_4 	DroppedPacketsInMac 	0
scalar IntersectionExampleScenario.node[5].nic.mac1609_4 	TooLittleTime 	0
scalar IntersectionExampleScenario.node[5].nic.mac1609_4 	TimesIntoBackoff 	0
scalar IntersectionExampleScenario.node[5].nic.mac1609_4 	SlotsBackoff 	0
scalar IntersectionExampleScenario.node[5].nic.mac1609_4 	NumInternalContention 	0
scalar IntersectionExampleScenario.node[5].nic.mac1609_4 	totalBusyTime 	0
scalar IntersectionExampleScenario.node[5].veinsmobility 	startTime 	10.25
scalar IntersectionExampleScenario.node[5].veinsmobility 	totalTime 	39.25
scalar IntersectionExampleScenario.node[5].veinsmobility 	stopTime 	49.75
scalar IntersectionExampleScenario.node[5].veinsmobility 	minSpeed 	5.6500000953674
scalar IntersectionExampleScenario.node[5].veinsmobility 	maxSpeed 	16.27499961853
scalar IntersectionExampleScenario.node[5].veinsmobility 	totalDistance 	543.07852227381
scalar IntersectionExampleScenario.node[5].veinsmobility 	totalCO2Emission 	129.34458986412
scalar IntersectionExampleScenario.node[6].appl 	VehicleRemoved 	0
scalar IntersectionExampleScenario.node[6].appl 	ArrivedAtDest 	1
scalar IntersectionExampleScenario.node[6].appl 	IntersectionEnterTime 	12
scalar IntersectionExampleScenario.node[6].appl 	IntersectionExitTime 	36.027744735533
scalar IntersectionExampleScenario.node[6].appl 	NumberOfCollisions 	0
scalar IntersectionExampleScenario.node[6].nic.phy80211p 	busyTime 	0
scalar IntersectionExampleScenario.node[6].nic.mac1609_4 	ReceivedUnicastPackets 	0
scalar IntersectionExampleScenario.node[6].nic.mac1609_4 	ReceivedBroadcasts 	0
scalar IntersectionExampleScenario.node[6].nic.mac1609_4 	SentPackets 	0
scalar IntersectionExampleScenario.node[6].nic.mac1609_4 	SNIRLostPackets 	0
scalar IntersectionExampleScenario.node[6].nic.mac1609_4 	RXTXLostPackets 	0
scalar IntersectionExampleScenario.node[6].nic.mac1609_4 	TotalLostPackets 	0
scalar IntersectionExampleScenario.node[6].nic.mac1609_4 	DroppedPacketsInMac 	0
scalar IntersectionExampleScenario.node[6].nic.mac1609_4 	TooLittleTime 	0
scalar IntersectionExampleScenario.node[6].nic.mac1609_4 	TimesIntoBackoff 	0
scalar IntersectionExampleScenario.node[6].nic.mac1609_4 	SlotsBackoff 	0
scalar IntersectionExampleScenario.node[6].nic.mac1609_4 	NumInternalContention 	0
scalar IntersectionExampleScenario.node[6].nic.mac1609_4 	totalBusyTime 	0
scalar IntersectionExampleScenario.node[6].veinsmobility 	startTime 	12
scalar IntersectionExampleScenario.node[6].veinsmobility 	totalTime 	39.25
scalar IntersectionExampleScenario.node[6].veinsmobility 	stopTime 	51.5
scalar IntersectionExampleScenario.node[6].veinsmobility 	minSpeed 	5.6500000953674
scalar IntersectionExampleScenario.node[6].veinsmobility 	maxSpeed 	16.075736999512
scalar IntersectionExampleScenario.node[6].veinsmobility 	totalDistance 	573.78771209717
scalar IntersectionExampleScenario.node[6].veinsmobility 	totalCO2Emission 	133.32056379744
scalar IntersectionExampleScenario.node[4].appl 	VehicleRemoved 	0
scalar IntersectionExampleScenario.node[4].appl 	ArrivedAtDest 	1
scalar IntersectionExampleScenario.node[4].appl 	IntersectionEnterTime 	8.5
scalar IntersectionExampleScenario.node[4].appl 	IntersectionExitTime 	34.301887649519
scalar IntersectionExampleScenario.node[4].appl 	NumberOfCollisions 	0
scalar IntersectionExampleScenario.node[4].nic.phy80211p 	busyTime 	0
scalar IntersectionExampleScenario.node[4].nic.mac1609_4 	ReceivedUnicastPackets 	0
scalar IntersectionExampleScenario.node[4].nic.mac1609_4 	ReceivedBroadcasts 	0
scalar IntersectionExampleScenario.node[4].nic.mac1609_4 	SentPackets 	0
scalar IntersectionExampleScenario.node[4].nic.mac1609_4 	SNIRLostPackets 	0
scalar IntersectionExampleScenario.node[4].nic.mac1609_4 	RXTXLostPackets 	0
scalar IntersectionExampleScenario.node[4].nic.mac1609_4 	TotalLostPackets 	0
scalar IntersectionExampleScenario.node[4].nic.mac1609_4 	DroppedPacketsInMac 	0
scalar IntersectionExampleScenario.node[4].nic.mac1609_4 	TooLittleTime 	0
scalar IntersectionExampleScenario.node[4].nic.mac1609_4 	TimesIntoBackoff 	0
scalar IntersectionExampleScenario.node[4].nic.mac1609_4 	SlotsBackoff 	0
scalar IntersectionExampleScenario.node[4].nic.mac1609_4 	NumInternalContention 	0
scalar IntersectionExampleScenario.node[4].nic.mac1609_4 	totalBusyTime 	0
scalar IntersectionExampleScenario.node[4].veinsmobility 	startTime 	8.5
scalar IntersectionExampleScenario.node[4].veinsmobility 	totalTime 	42.75
scalar IntersectionExampleScenario.node[4].veinsmobility 	stopTime 	51.5
scalar IntersectionExampleScenario.node[4].veinsmobility 	minSpeed 	5.6500000953674
scalar IntersectionExampleScenario.node[4].veinsmobility 	maxSpeed 	15.474139213562
scalar IntersectionExampleScenario.node[4].veinsmobility 	totalDistance 	567.96829784221
scalar IntersectionExampleScenario.node[4].veinsmobility 	totalCO2Emission 	132.34482160246
scalar IntersectionExampleScenario.node[7].appl 	VehicleRemoved 	0
scalar IntersectionExampleScenario.node[7].appl 	ArrivedAtDest 	1
scalar IntersectionExampleScenario.node[7].appl 	IntersectionEnterTime 	12
scalar IntersectionExampleScenario.node[7].appl 	IntersectionExitTime 	37.334047959826
scalar IntersectionExampleScenario.node[7].appl 	NumberOfCollisions 	0
scalar IntersectionExampleScenario.node[7].nic.phy80211p 	busyTime 	0
scalar IntersectionExampleScenario.node[7].nic.mac1609_4 	ReceivedUnicastPackets 	0
scalar IntersectionExampleScenario.node[7].nic.mac1609_4 	ReceivedBroadcasts 	0
scalar IntersectionExampleScenario.node[7].nic.mac1609_4 	SentPackets 	0
scalar IntersectionExampleScenario.node[7].nic.mac1609_4 	SNIRLostPackets 	0
scalar IntersectionExampleScenario.node[7].nic.mac1609_4 	RXTXLostPackets 	0
scalar IntersectionExampleScenario.node[7].nic.mac1609_4 	TotalLostPackets 	0
scalar IntersectionExampleScenario.node[7].nic.mac1609_4 	DroppedPacketsInMac 	0
scalar IntersectionExampleScenario.node[7].nic.mac1609_4 	TooLittleTime 	0
scalar IntersectionExampleScenario.node[7].nic.mac1609_4 	TimesIntoBackoff 	0
scalar IntersectionExampleScenario.node[7].nic.mac1609_4 	SlotsBackoff 	0
scalar IntersectionExampleScenario.node[7].nic.mac1609_4 	NumInternalContention 	0
scalar IntersectionExampleScenario.node[7].nic.mac1609_4 	totalBusyTime 	0
scalar IntersectionExampleScenario.node[7].veinsmobility 	startTime 	12
scalar IntersectionExampleScenario.node[7].veinsmobility 	totalTime 	42.5
scalar IntersectionExampleScenario.node[7].veinsmobility 	stopTime 	54.75
scalar IntersectionExampleScenario.node[7].veinsmobility 	minSpeed 	5.6500000953674
scalar IntersectionExampleScenario.node[7].veinsmobility 	maxSpeed 	14.39999961853
scalar IntersectionExampleScenario.node[7].veinsmobility 	totalDistance 	574.25096130371
scalar IntersectionExampleScenario.node[7].veinsmobility 	totalCO2Emission 	114.45317152868
scalar IntersectionExampleScenario.node[9].appl 	VehicleRemoved 	0
scalar IntersectionExampleScenario.node[9].appl 	ArrivedAtDest 	1
scalar IntersectionExampleScenario.node[9].appl 	IntersectionEnterTime 	23
scalar IntersectionExampleScenario.node[9].appl 	IntersectionExitTime 	45.77813181284
scalar IntersectionExampleScenario.node[9].appl 	NumberOfCollisions 	0
scalar IntersectionExampleScenario.node[9].nic.phy80211p 	busyTime 	0
scalar IntersectionExampleScenario.node[9].nic.mac1609_4 	ReceivedUnicastPackets 	0
scalar IntersectionExampleScenario.node[9].nic.mac1609_4 	ReceivedBroadcasts 	0
scalar IntersectionExampleScenario.node[9].nic.mac1609_4 	SentPackets 	0
scalar IntersectionExampleScenario.node[9].nic.mac1609_4 	SNIRLostPackets 	0
scalar IntersectionExampleScenario.node[9].nic.mac1609_4 	RXTXLostPackets 	0
scalar IntersectionExampleScenario.node[9].nic.mac1609_4 	TotalLostPackets 	0
scalar IntersectionExampleScenario.node[9].nic.mac1609_4 	DroppedPacketsInMac 	0
scalar IntersectionExampleScenario.node[9].nic.mac1609_4 	TooLittleTime 	0
scalar IntersectionExampleScenario.node[9].nic.mac1609_4 	TimesIntoBackoff 	0
scalar IntersectionExampleScenario.node[9].nic.mac1609_4 	SlotsBackoff 	0
scalar IntersectionExampleScenario.node[9].nic.mac1609_4 	NumInternalContention 	0
scalar IntersectionExampleScenario.node[9].nic.mac1609_4 	totalBusyTime 	0
scalar IntersectionExampleScenario.node[9].veinsmobility 	startTime 	23
scalar IntersectionExampleScenario.node[9].veinsmobility 	totalTime 	38.5
scalar IntersectionExampleScenario.node[9].veinsmobility 	stopTime 	61.75
scalar IntersectionExampleScenario.node[9].veinsmobility 	minSpeed 	5.6500000953674
scalar IntersectionExampleScenario.node[9].veinsmobility 	maxSpeed 	15.64999961853
scalar IntersectionExampleScenario.node[9].veinsmobility 	totalDistance 	551.24143218994
scalar IntersectionExampleScenario.node[9].veinsmobility 	totalCO2Emission 	117.95031274191
scalar IntersectionExampleScenario.node[11].appl 	VehicleRemoved 	0
scalar IntersectionExampleScenario.node[11].appl 	ArrivedAtDest 	1
scalar IntersectionExampleScenario.node[11].appl 	IntersectionEnterTime 	23.75
scalar IntersectionExampleScenario.node[11].appl 	IntersectionExitTime 	47.858884006331
scalar IntersectionExampleScenario.node[11].appl 	NumberOfCollisions 	0
scalar IntersectionExampleScenario.node[11].nic.phy80211p 	busyTime 	0
scalar IntersectionExampleScenario.node[11].nic.mac1609_4 	ReceivedUnicastPackets 	0
scalar IntersectionExampleScenario.node[11].nic.mac1609_4 	ReceivedBroadcasts 	0
scalar IntersectionExampleScenario.node[11].nic.mac1609_4 	SentPackets 	0
scalar IntersectionExampleScenario.node[11].nic.mac1609_4 	SNIRLostPackets 	0
scalar IntersectionExampleScenario.node[11].nic.mac1609_4 	RXTXLostPackets 	0
scalar IntersectionExampleScenario.node[11].nic.mac1609_4 	TotalLostPackets 	0
scalar IntersectionExampleScenario.node[11].nic.mac1609_4 	DroppedPacketsInMac 	0
scalar IntersectionExampleScenario.node[11].nic.mac1609_4 	TooLittleTime 	0
scalar IntersectionExampleScenario.node[11].nic.mac1609_4 	TimesIntoBackoff 	0
scalar IntersectionExampleScenario.node[11].nic.mac1609_4 	SlotsBackoff 	0
scalar IntersectionExampleScenario.node[11].nic.mac1609_4 	NumInternalContention 	0
scalar IntersectionExampleScenario.node[11].nic.mac1609_4 	totalBusyTime 	0
scalar IntersectionExampleScenario.node[11].veinsmobility 	startTime 	23.75
scalar IntersectionExampleScenario.node[11].veinsmobility 	totalTime 	39.5
scalar IntersectionExampleScenario.node[11].veinsmobility 	stopTime 	63.5
scalar IntersectionExampleScenario.node[11].veinsmobility 	minSpeed 	5.6500000953674
scalar IntersectionExampleScenario.node[11].veinsmobility 	maxSpeed 	16.625
scalar IntersectionExampleScenario.node[11].veinsmobility 	totalDistance 	572.10748129355
scalar IntersectionExampleScenario.node[11].veinsmobility 	totalCO2Emission 	131.13409891019
scalar IntersectionExampleScenario.node[10].appl 	VehicleRemoved 	0
scalar IntersectionExampleScenario.node[10].appl 	ArrivedAtDest 	1
scalar IntersectionExampleScenario.node[10].appl 	IntersectionEnterTime 	23.25
scalar IntersectionExampleScenario.node[10].appl 	IntersectionExitTime 	46.826202958007
scalar IntersectionExampleScenario.node[10].appl 	NumberOfCollisions 	0
scalar IntersectionExampleScenario.node[10].nic.phy80211p 	busyTime 	0
scalar IntersectionExampleScenario.node[10].nic.mac1609_4 	ReceivedUnicastPackets 	0
scalar IntersectionExampleScenario.node[10].nic.mac1609_4 	ReceivedBroadcasts 	0
scalar IntersectionExampleScenario.node[10].nic.mac1609_4 	SentPackets 	0
scalar IntersectionExampleScenario.node[10].nic.mac1609_4 	SNIRLostPackets 	0
scalar IntersectionExampleScenario.node[10].nic.mac1609_4 	RXTXLostPackets 	0
scalar IntersectionExampleScenario.node[10].nic.mac1609_4 	TotalLostPackets 	0
scalar IntersectionExampleScenario.node[10].nic.mac1609_4 	DroppedPacketsInMac 	0
scalar IntersectionExampleScenario.node[10].nic.mac1609_4 	TooLittleTime 	0
scalar IntersectionExampleScenario.node[10].nic.mac1609_4 	TimesIntoBackoff 	0
scalar IntersectionExampleScenario.node[10].nic.mac1609_4 	SlotsBackoff 	0
scalar IntersectionExampleScenario.node[10].nic.mac1609_4 	NumInternalContention 	0
scalar IntersectionExampleScenario.node[10].nic.mac1609_4 	totalBusyTime 	0
scalar IntersectionExampleScenario.node[10].veinsmobility 	startTime 	23.25
scalar IntersectionExampleScenario.node[10].veinsmobility 	totalTime 	40.25
scalar IntersectionExampleScenario.node[10].veinsmobility 	stopTime 	63.75
scalar IntersectionExampleScenario.node[10].veinsmobility 	minSpeed 	5.6500000953674
scalar IntersectionExampleScenario.node[10].veinsmobility 	maxSpeed 	15.375
scalar IntersectionExampleScenario.node[10].veinsmobility 	totalDistance 	551.48368825182
scalar IntersectionExampleScenario.node[10].veinsmobility 	totalCO2Emission 	120.51213970754
scalar IntersectionExampleScenario.node[1].appl 	VehicleRemoved 	0
scalar IntersectionExampleScenario.node[1].appl 	ArrivedAtDest 	1
scalar IntersectionExampleScenario.node[1].appl 	IntersectionEnterTime 	3
scalar IntersectionExampleScenario.node[1].appl 	IntersectionExitTime 	86.525905359827
scalar IntersectionExampleScenario.node[1].appl 	NumberOfCollisions 	0
scalar IntersectionExampleScenario.node[1].nic.phy80211p 	busyTime 	0
scalar IntersectionExampleScenario.node[1].nic.mac1609_4 	ReceivedUnicastPackets 	0
scalar IntersectionExampleScenario.node[1].nic.mac1609_4 	ReceivedBroadcasts 	0
scalar IntersectionExampleScenario.node[1].nic.mac1609_4 	SentPackets 	0
scalar IntersectionExampleScenario.node[1].nic.mac1609_4 	SNIRLostPackets 	0
scalar IntersectionExampleScenario.node[1].nic.mac1609_4 	RXTXLostPackets 	0
scalar IntersectionExampleScenario.node[1].nic.mac1609_4 	TotalLostPackets 	0
scalar IntersectionExampleScenario.node[1].nic.mac1609_4 	DroppedPacketsInMac 	0
scalar IntersectionExampleScenario.node[1].nic.mac1609_4 	TooLittleTime 	0
scalar IntersectionExampleScenario.node[1].nic.mac1609_4 	TimesIntoBackoff 	0
scalar IntersectionExampleScenario.node[1].nic.mac1609_4 	SlotsBackoff 	0
scalar IntersectionExampleScenario.node[1].nic.mac1609_4 	NumInternalContention 	0
scalar IntersectionExampleScenario.node[1].nic.mac1609_4 	totalBusyTime 	0
scalar IntersectionExampleScenario.node[1].veinsmobility 	startTime 	3
scalar IntersectionExampleScenario.node[1].veinsmobility 	totalTime 	100.25
scalar IntersectionExampleScenario.node[1].veinsmobility 	stopTime 	103.5
scalar IntersectionExampleScenario.node[1].veinsmobility 	minSpeed 	0
scalar IntersectionExampleScenario.node[1].veinsmobility 	maxSpeed 	15.875
scalar IntersectionExampleScenario.node[1].veinsmobility 	totalDistance 	546.14742947966
scalar IntersectionExampleScenario.node[1].veinsmobility 	totalCO2Emission 	191.82693789864
scalar IntersectionExampleScenario.node[2].appl 	VehicleRemoved 	0
scalar IntersectionExampleScenario.node[2].appl 	ArrivedAtDest 	1
scalar IntersectionExampleScenario.node[2].appl 	IntersectionEnterTime 	4
scalar IntersectionExampleScenario.node[2].appl 	IntersectionExitTime 	88.307104152831
scalar IntersectionExampleScenario.node[2].appl 	NumberOfCollisions 	0
scalar IntersectionExampleScenario.node[2].nic.phy80211p 	busyTime 	0
scalar IntersectionExampleScenario.node[2].nic.mac1609_4 	ReceivedUnicastPackets 	0
scalar IntersectionExampleScenario.node[2].nic.mac1609_4 	ReceivedBroadcasts 	0
scalar IntersectionExampleScenario.node[2].nic.mac1609_4 	SentPackets 	0
scalar IntersectionExampleScenario.node[2].nic.mac1609_4 	SNIRLostPackets 	0
scalar IntersectionExampleScenario.node[2].nic.mac1609_4 	RXTXLostPackets 	0
scalar IntersectionExampleScenario.node[2].nic.mac1609_4 	TotalLostPackets 	0
scalar IntersectionExampleScenario.node[2].nic.mac1609_4 	DroppedPacketsInMac 	0
scalar IntersectionExampleScenario.node[2].nic.mac1609_4 	TooLittleTime 	0
scalar IntersectionExampleScenario.node[2].nic.mac1609_4 	TimesIntoBackoff 	0
scalar IntersectionExampleScenario.node[2].nic.mac1609_4 	SlotsBackoff 	0
scalar IntersectionExampleScenario.node[2].nic.mac1609_4 	NumInternalContention 	0
scalar IntersectionExampleScenario.node[2].nic.mac1609_4 	totalBusyTime 	0
scalar IntersectionExampleScenario.node[2].veinsmobility 	startTime 	4
scalar IntersectionExampleScenario.node[2].veinsmobility 	totalTime 	100
scalar IntersectionExampleScenario.node[2].veinsmobility 	stopTime 	104.25
scalar IntersectionExampleScenario.node[2].veinsmobility 	minSpeed 	0
scalar IntersectionExampleScenario.node[2].veinsmobility 	maxSpeed 	16.125
scalar IntersectionExampleScenario.node[2].veinsmobility 	totalDistance 	574.88829803467
scalar IntersectionExampleScenario.node[2].veinsmobility 	totalCO2Emission 	196.04388506318
scalar IntersectionExampleScenario.node[8].appl 	VehicleRemoved 	0
scalar IntersectionExampleScenario.node[8].appl 	ArrivedAtDest 	1
scalar IntersectionExampleScenario.node[8].appl 	IntersectionEnterTime 	15.5
scalar IntersectionExampleScenario.node[8].appl 	IntersectionExitTime 	90.761527126422
scalar IntersectionExampleScenario.node[8].appl 	NumberOfCollisions 	0
scalar IntersectionExampleScenario.node[8].nic.phy80211p 	busyTime 	0
scalar IntersectionExampleScenario.node[8].nic.mac1609_4 	ReceivedUnicastPackets 	0
scalar IntersectionExampleScenario.node[8].nic.mac1609_4 	ReceivedBroadcasts 	0
scalar IntersectionExampleScenario.node[8].nic.mac1609_4 	SentPackets 	0
scalar IntersectionExampleScenario.node[8].nic.mac1609_4 	SNIRLostPackets 	0
scalar IntersectionExampleScenario.node[8].nic.mac1609_4 	RXTXLostPackets 	0
scalar IntersectionExampleScenario.node[8].nic.mac1609_4 	TotalLostPackets 	0
scalar IntersectionExampleScenario.node[8].nic.mac1609_4 	DroppedPacketsInMac 	0
scalar IntersectionExampleScenario.node[8].nic.mac1609_4 	TooLittleTime 	0
scalar IntersectionExampleScenario.node[8].nic.mac1609_4 	TimesIntoBackoff 	0
scalar IntersectionExampleScenario.node[8].nic.mac1609_4 	SlotsBackoff 	0
scalar IntersectionExampleScenario.node[8].nic.mac1609_4 	NumInternalContention 	0
scalar IntersectionExampleScenario.node[8].nic.mac1609_4 	totalBusyTime 	0
scalar IntersectionExampleScenario.node[8].veinsmobility 	startTime 	15.5
scalar IntersectionExampleScenario.node[8].veinsmobility 	totalTime 	91.75
scalar IntersectionExampleScenario.node[8].veinsmobility 	stopTime 	107.5
scalar IntersectionExampleScenario.node[8].veinsmobility 	minSpeed 	0
scalar IntersectionExampleScenario.node[8].veinsmobility 	maxSpeed 	15.375
scalar IntersectionExampleScenario.node[8].veinsmobility 	totalDistance 	550.57290711978
scalar IntersectionExampleScenario.node[8].veinsmobility 	totalCO2Emission 	179.13460100484
scalar IntersectionExampleScenario.node[14].appl 	VehicleRemoved 	0
scalar IntersectionExampleScenario.node[14].appl 	ArrivedAtDest 	1
scalar IntersectionExampleScenario.node[14].appl 	IntersectionEnterTime 	33.5
scalar IntersectionExampleScenario.node[14].appl 	IntersectionExitTime 	93.101045279123
scalar IntersectionExampleScenario.node[14].appl 	NumberOfCollisions 	0
scalar IntersectionExampleScenario.node[14].nic.phy80211p 	busyTime 	0
scalar IntersectionExampleScenario.node[14].nic.mac1609_4 	ReceivedUnicastPackets 	0
scalar IntersectionExampleScenario.node[14].nic.mac1609_4 	ReceivedBroadcasts 	0
scalar IntersectionExampleScenario.node[14].nic.mac1609_4 	SentPackets 	0
scalar IntersectionExampleScenario.node[14].nic.mac1609_4 	SNIRLostPackets 	0
scalar IntersectionExampleScenario.node[14].nic.mac1609_4 	RXTXLostPackets 	0
scalar IntersectionExampleScenario.node[14].nic.mac1609_4 	TotalLostPackets 	0
scalar IntersectionExampleScenario.node[14].nic.mac1609_4 	DroppedPacketsInMac 	0
scalar IntersectionExampleScenario.node[14].nic.mac1609_4 	TooLittleTime 	0
scalar IntersectionExampleScenario.node[14].nic.mac1609_4 	TimesIntoBackoff 	0
scalar IntersectionExampleScenario.node[14].nic.mac1609_4 	SlotsBackoff 	0
scalar IntersectionExampleScenario.node[14].nic.mac1609_4 	NumInternalContention 	0
scalar IntersectionExampleScenario.node[14].nic.mac1609_4 	totalBusyTime 	0
scalar IntersectionExampleScenario.node[14].veinsmobility 	startTime 	33.5
scalar IntersectionExampleScenario.node[14].veinsmobility 	totalTime 	76
scalar IntersectionExampleScenario.node[14].veinsmobility 	stopTime 	109.75
scalar IntersectionExampleScenario.node[14].veinsmobility 	minSpeed 	0
scalar IntersectionExampleScenario.node[14].veinsmobility 	maxSpeed 	15.255288124084
scalar IntersectionExampleScenario.node[14].veinsmobility 	totalDistance 	549.34410229902
scalar IntersectionExampleScenario.node[14].veinsmobility 	totalCO2Emission 	163.67854080643
scalar IntersectionExampleScenario.node[15].appl 	VehicleRemoved 	0
scalar IntersectionExampleScenario.node[15].appl 	ArrivedAtDest 	1
scalar IntersectionExampleScenario.node[15].appl 	IntersectionEnterTime 	37.75
scalar IntersectionExampleScenario.node[15].appl 	IntersectionExitTime 	94.817514950177
scalar IntersectionExampleScenario.node[15].appl 	NumberOfCollisions 	0
scalar IntersectionExampleScenario.node[15].nic.phy80211p 	busyTime 	0
scalar IntersectionExampleScenario.node[15].nic.mac1609_4 	ReceivedUnicastPackets 	0
scalar IntersectionExampleScenario.node[15].nic.mac1609_4 	ReceivedBroadcasts 	0
scalar IntersectionExampleScenario.node[15].nic.mac1609_4 	SentPackets 	0
scalar IntersectionExampleScenario.node[15].nic.mac1609_4 	SNIRLostPackets 	0
scalar IntersectionExampleScenario.node[15].nic.mac1609_4 	RXTXLostPackets 	0
scalar IntersectionExampleScenario.node[15].nic.mac1609_4 	TotalLostPackets 	0
scalar IntersectionExampleScenario.node[15].nic.mac1609_4 	DroppedPacketsInMac 	0
scalar IntersectionExampleScenario.node[15].nic.mac1609_4 	TooLittleTime 	0
scalar IntersectionExampleScenario.node[15].nic.mac1609_4 	TimesIntoBackoff 	0
scalar IntersectionExampleScenario.node[15].nic.mac1609_4 	SlotsBackoff 	0
scalar IntersectionExampleScenario.node[15].nic.mac1609_4 	NumInternalContention 	0
scalar IntersectionExampleScenario.node[15].nic.mac1609_4 	totalBusyTime 	0
scalar IntersectionExampleScenario.node[15].veinsmobility 	startTime 	37.75
scalar IntersectionExampleScenario.node[15].veinsmobility 	totalTime 	72.75
scalar IntersectionExampleScenario.node[15].veinsmobility 	stopTime 	110.75
scalar IntersectionExampleScenario.node[15].veinsmobility 	minSpeed 	0
scalar IntersectionExampleScenario.node[15].veinsmobility 	maxSpeed 	16.125
scalar IntersectionExampleScenario.node[15].veinsmobility 	totalDistance 	558.04005432129
scalar IntersectionExampleScenario.node[15].veinsmobility 	totalCO2Emission 	167.64510205848
scalar IntersectionExampleScenario.node[16].appl 	VehicleRemoved 	0
scalar IntersectionExampleScenario.node[16].appl 	ArrivedAtDest 	1
scalar IntersectionExampleScenario.node[16].appl 	IntersectionEnterTime 	40
scalar IntersectionExampleScenario.node[16].appl 	IntersectionExitTime 	96.787782951695
scalar IntersectionExampleScenario.node[16].appl 	NumberOfCollisions 	0
scalar IntersectionExampleScenario.node[16].nic.phy80211p 	busyTime 	0
scalar IntersectionExampleScenario.node[16].nic.mac1609_4 	ReceivedUnicastPackets 	0
scalar IntersectionExampleScenario.node[16].nic.mac1609_4 	ReceivedBroadcasts 	0
scalar IntersectionExampleScenario.node[16].nic.mac1609_4 	SentPackets 	0
scalar IntersectionExampleScenario.node[16].nic.mac1609_4 	SNIRLostPackets 	0
scalar IntersectionExampleScenario.node[16].nic.mac1609_4 	RXTXLostPackets 	0
scalar IntersectionExampleScenario.node[16].nic.mac1609_4 	TotalLostPackets 	0
scalar IntersectionExampleScenario.node[16].nic.mac1609_4 	DroppedPacketsInMac 	0
scalar IntersectionExampleScenario.node[16].nic.mac1609_4 	TooLittleTime 	0
scalar IntersectionExampleScenario.node[16].nic.mac1609_4 	TimesIntoBackoff 	0
scalar IntersectionExampleScenario.node[16].nic.mac1609_4 	SlotsBackoff 	0
scalar IntersectionExampleScenario.node[16].nic.mac1609_4 	NumInternalContention 	0
scalar IntersectionExampleScenario.node[16].nic.mac1609_4 	totalBusyTime 	0
scalar IntersectionExampleScenario.node[16].veinsmobility 	startTime 	40
scalar IntersectionExampleScenario.node[16].veinsmobility 	totalTime 	72.75
scalar IntersectionExampleScenario.node[16].veinsmobility 	stopTime 	113
scalar IntersectionExampleScenario.node[16].veinsmobility 	minSpeed 	0
scalar IntersectionExampleScenario.node[16].veinsmobility 	maxSpeed 	15.64999961853
scalar IntersectionExampleScenario.node[16].veinsmobility 	totalDistance 	572.99656677246
scalar IntersectionExampleScenario.node[16].veinsmobility 	totalCO2Emission 	164.59017974029
scalar IntersectionExampleScenario.node[21].appl 	VehicleRemoved 	0
scalar IntersectionExampleScenario.node[21].appl 	ArrivedAtDest 	1
scalar IntersectionExampleScenario.node[21].appl 	IntersectionEnterTime 	45
scalar IntersectionExampleScenario.node[21].appl 	IntersectionExitTime 	99.588397575339
scalar IntersectionExampleScenario.node[21].appl 	NumberOfCollisions 	0
scalar IntersectionExampleScenario.node[21].nic.phy80211p 	busyTime 	0
scalar IntersectionExampleScenario.node[21].nic.mac1609_4 	ReceivedUnicastPackets 	0
scalar IntersectionExampleScenario.node[21].nic.mac1609_4 	ReceivedBroadcasts 	0
scalar IntersectionExampleScenario.node[21].nic.mac1609_4 	SentPackets 	0
scalar IntersectionExampleScenario.node[21].nic.mac1609_4 	SNIRLostPackets 	0
scalar IntersectionExampleScenario.node[21].nic.mac1609_4 	RXTXLostPackets 	0
scalar IntersectionExampleScenario.node[21].nic.mac1609_4 	TotalLostPackets 	0
scalar IntersectionExampleScenario.node[21].nic.mac1609_4 	DroppedPacketsInMac 	0
scalar IntersectionExampleScenario.node[21].nic.mac1609_4 	TooLittleTime 	0
scalar IntersectionExampleScenario.node[21].nic.mac1609_4 	TimesIntoBackoff 	0
scalar IntersectionExampleScenario.node[21].nic.mac1609_4 	SlotsBackoff 	0
scalar IntersectionExampleScenario.node[21].nic.mac1609_4 	NumInternalContention 	0
scalar IntersectionExampleScenario.node[21].nic.mac1609_4 	totalBusyTime 	0
scalar IntersectionExampleScenario.node[21].veinsmobility 	startTime 	45
scalar IntersectionExampleScenario.node[21].veinsmobility 	totalTime 	71
scalar IntersectionExampleScenario.node[21].veinsmobility 	stopTime 	116.25
scalar IntersectionExampleScenario.node[21].veinsmobility 	minSpeed 	0
scalar IntersectionExampleScenario.node[21].veinsmobility 	maxSpeed 	15.875
scalar IntersectionExampleScenario.node[21].veinsmobility 	totalDistance 	534.80635074825
scalar IntersectionExampleScenario.node[21].veinsmobility 	totalCO2Emission 	171.89030624682
scalar IntersectionExampleScenario.node[19].appl 	VehicleRemoved 	0
scalar IntersectionExampleScenario.node[19].appl 	ArrivedAtDest 	1
scalar IntersectionExampleScenario.node[19].appl 	IntersectionEnterTime 	43.75
scalar IntersectionExampleScenario.node[19].appl 	IntersectionExitTime 	101.62378764857
scalar IntersectionExampleScenario.node[19].appl 	NumberOfCollisions 	0
scalar IntersectionExampleScenario.node[19].nic.phy80211p 	busyTime 	0
scalar IntersectionExampleScenario.node[19].nic.mac1609_4 	ReceivedUnicastPackets 	0
scalar IntersectionExampleScenario.node[19].nic.mac1609_4 	ReceivedBroadcasts 	0
scalar IntersectionExampleScenario.node[19].nic.mac1609_4 	SentPackets 	0
scalar IntersectionExampleScenario.node[19].nic.mac1609_4 	SNIRLostPackets 	0
scalar IntersectionExampleScenario.node[19].nic.mac1609_4 	RXTXLostPackets 	0
scalar IntersectionExampleScenario.node[19].nic.mac1609_4 	TotalLostPackets 	0
scalar IntersectionExampleScenario.node[19].nic.mac1609_4 	DroppedPacketsInMac 	0
scalar IntersectionExampleScenario.node[19].nic.mac1609_4 	TooLittleTime 	0
scalar IntersectionExampleScenario.node[19].nic.mac1609_4 	TimesIntoBackoff 	0
scalar IntersectionExampleScenario.node[19].nic.mac1609_4 	SlotsBackoff 	0
scalar IntersectionExampleScenario.node[19].nic.mac1609_4 	NumInternalContention 	0
scalar IntersectionExampleScenario.node[19].nic.mac1609_4 	totalBusyTime 	0
scalar IntersectionExampleScenario.node[19].veinsmobility 	startTime 	43.75
scalar IntersectionExampleScenario.node[19].veinsmobility 	totalTime 	74
scalar IntersectionExampleScenario.node[19].veinsmobility 	stopTime 	118
scalar IntersectionExampleScenario.node[19].veinsmobility 	minSpeed 	0
scalar IntersectionExampleScenario.node[19].veinsmobility 	maxSpeed 	15.594697952271
scalar IntersectionExampleScenario.node[19].veinsmobility 	totalDistance 	568.52051394541
scalar IntersectionExampleScenario.node[19].veinsmobility 	totalCO2Emission 	174.69381924249
scalar IntersectionExampleScenario.node[31].appl 	VehicleRemoved 	0
scalar IntersectionExampleScenario.node[31].appl 	ArrivedAtDest 	1
scalar IntersectionExampleScenario.node[31].appl 	IntersectionEnterTime 	81
scalar IntersectionExampleScenario.node[31].appl 	IntersectionExitTime 	104.62443039686
scalar IntersectionExampleScenario.node[31].appl 	NumberOfCollisions 	0
scalar IntersectionExampleScenario.node[31].nic.phy80211p 	busyTime 	0
scalar IntersectionExampleScenario.node[31].nic.mac1609_4 	ReceivedUnicastPackets 	0
scalar IntersectionExampleScenario.node[31].nic.mac1609_4 	ReceivedBroadcasts 	0
scalar IntersectionExampleScenario.node[31].nic.mac1609_4 	SentPackets 	0
scalar IntersectionExampleScenario.node[31].nic.mac1609_4 	SNIRLostPackets 	0
scalar IntersectionExampleScenario.node[31].nic.mac1609_4 	RXTXLostPackets 	0
scalar IntersectionExampleScenario.node[31].nic.mac1609_4 	TotalLostPackets 	0
scalar IntersectionExampleScenario.node[31].nic.mac1609_4 	DroppedPacketsInMac 	0
scalar IntersectionExampleScenario.node[31].nic.mac1609_4 	TooLittleTime 	0
scalar IntersectionExampleScenario.node[31].nic.mac1609_4 	TimesIntoBackoff 	0
scalar IntersectionExampleScenario.node[31].nic.mac1609_4 	SlotsBackoff 	0
scalar IntersectionExampleScenario.node[31].nic.mac1609_4 	NumInternalContention 	0
scalar IntersectionExampleScenario.node[31].nic.mac1609_4 	totalBusyTime 	0
scalar IntersectionExampleScenario.node[31].veinsmobility 	startTime 	81
scalar IntersectionExampleScenario.node[31].veinsmobility 	totalTime 	40
scalar IntersectionExampleScenario.node[31].veinsmobility 	stopTime 	121.25
scalar IntersectionExampleScenario.node[31].veinsmobility 	minSpeed 	5.6500000953674
scalar IntersectionExampleScenario.node[31].veinsmobility 	maxSpeed 	15.91600894928
scalar IntersectionExampleScenario.node[31].veinsmobility 	totalDistance 	543.32753757128
scalar IntersectionExampleScenario.node[31].veinsmobility 	totalCO2Emission 	135.39674932589
scalar IntersectionExampleScenario.node[32].appl 	VehicleRemoved 	0
scalar IntersectionExampleScenario.node[32].appl 	ArrivedAtDest 	1
scalar IntersectionExampleScenario.node[32].appl 	IntersectionEnterTime 	82.25
scalar IntersectionExampleScenario.node[32].appl 	IntersectionExitTime 	106.516207298
scalar IntersectionExampleScenario.node[32].appl 	NumberOfCollisions 	0
scalar IntersectionExampleScenario.node[32].nic.phy80211p 	busyTime 	0
scalar IntersectionExampleScenario.node[32].nic.mac1609_4 	ReceivedUnicastPackets 	0
scalar IntersectionExampleScenario.node[32].nic.mac1609_4 	ReceivedBroadcasts 	0
scalar IntersectionExampleScenario.node[32].nic.mac1609_4 	SentPackets 	0
scalar IntersectionExampleScenario.node[32].nic.mac1609_4 	SNIRLostPackets 	0
scalar IntersectionExampleScenario.node[32].nic.mac1609_4 	RXTXLostPackets 	0
scalar IntersectionExampleScenario.node[32].nic.mac1609_4 	TotalLostPackets 	0
scalar IntersectionExampleScenario.node[32].nic.mac1609_4 	DroppedPacketsInMac 	0
scalar IntersectionExampleScenario.node[32].nic.mac1609_4 	TooLittleTime 	0
scalar IntersectionExampleScenario.node[32].nic.mac1609_4 	TimesIntoBackoff 	0
scalar IntersectionExampleScenario.node[32].nic.mac1609_4 	SlotsBackoff 	0
scalar IntersectionExampleScenario.node[32].nic.mac1609_4 	NumInternalContention 	0
scalar IntersectionExampleScenario.node[32].nic.mac1609_4 	totalBusyTime 	0
scalar IntersectionExampleScenario.node[32].veinsmobility 	startTime 	82.25
scalar IntersectionExampleScenario.node[32].veinsmobility 	totalTime 	39.75
scalar IntersectionExampleScenario.node[32].veinsmobility 	stopTime 	122.25
scalar IntersectionExampleScenario.node[32].veinsmobility 	minSpeed 	5.6500000953674
scalar IntersectionExampleScenario.node[32].veinsmobility 	maxSpeed 	16.125
scalar IntersectionExampleScenario.node[32].veinsmobility 	totalDistance 	573.29343414307
scalar IntersectionExampleScenario.node[32].veinsmobility 	totalCO2Emission 	131.24465689266
scalar IntersectionExampleScenario.node[12].appl 	VehicleRemoved 	0
scalar IntersectionExampleScenario.node[12].appl 	ArrivedAtDest 	1
scalar IntersectionExampleScenario.node[12].appl 	IntersectionEnterTime 	29.25
scalar IntersectionExampleScenario.node[12].appl 	IntersectionExitTime 	129.34507231129
scalar IntersectionExampleScenario.node[12].appl 	NumberOfCollisions 	0
scalar IntersectionExampleScenario.node[12].nic.phy80211p 	busyTime 	0
scalar IntersectionExampleScenario.node[12].nic.mac1609_4 	ReceivedUnicastPackets 	0
scalar IntersectionExampleScenario.node[12].nic.mac1609_4 	ReceivedBroadcasts 	0
scalar IntersectionExampleScenario.node[12].nic.mac1609_4 	SentPackets 	0
scalar IntersectionExampleScenario.node[12].nic.mac1609_4 	SNIRLostPackets 	0
scalar IntersectionExampleScenario.node[12].nic.mac1609_4 	RXTXLostPackets 	0
scalar IntersectionExampleScenario.node[12].nic.mac1609_4 	TotalLostPackets 	0
scalar IntersectionExampleScenario.node[12].nic.mac1609_4 	DroppedPacketsInMac 	0
scalar IntersectionExampleScenario.node[12].nic.mac1609_4 	TooLittleTime 	0
scalar IntersectionExampleScenario.node[12].nic.mac1609_4 	TimesIntoBackoff 	0
scalar IntersectionExampleScenario.node[12].nic.mac1609_4 	SlotsBackoff 	0
scalar IntersectionExampleScenario.node[12].nic.mac1609_4 	NumInternalContention 	0
scalar IntersectionExampleScenario.node[12].nic.mac1609_4 	totalBusyTime 	0
scalar IntersectionExampleScenario.node[12].veinsmobility 	startTime 	29.25
scalar IntersectionExampleScenario.node[12].veinsmobility 	totalTime 	116
scalar IntersectionExampleScenario.node[12].veinsmobility 	stopTime 	145.5
scalar IntersectionExampleScenario.node[12].veinsmobility 	minSpeed 	0
scalar IntersectionExampleScenario.node[12].veinsmobility 	maxSpeed 	15.375
scalar IntersectionExampleScenario.node[12].veinsmobility 	totalDistance 	553.61804199219
scalar IntersectionExampleScenario.node[12].veinsmobility 	totalCO2Emission 	207.33181457133
scalar IntersectionExampleScenario.node[13].appl 	VehicleRemoved 	0
scalar IntersectionExampleScenario.node[13].appl 	ArrivedAtDest 	1
scalar IntersectionExampleScenario.node[13].appl 	IntersectionEnterTime 	30.75
scalar IntersectionExampleScenario.node[13].appl 	IntersectionExitTime 	129.30573755508
scalar IntersectionExampleScenario.node[13].appl 	NumberOfCollisions 	0
scalar IntersectionExampleScenario.node[13].nic.phy80211p 	busyTime 	0
scalar IntersectionExampleScenario.node[13].nic.mac1609_4 	ReceivedUnicastPackets 	0
scalar IntersectionExampleScenario.node[13].nic.mac1609_4 	ReceivedBroadcasts 	0
scalar IntersectionExampleScenario.node[13].nic.mac1609_4 	SentPackets 	0
scalar IntersectionExampleScenario.node[13].nic.mac1609_4 	SNIRLostPackets 	0
scalar IntersectionExampleScenario.node[13].nic.mac1609_4 	RXTXLostPackets 	0
scalar IntersectionExampleScenario.node[13].nic.mac1609_4 	TotalLostPackets 	0
scalar IntersectionExampleScenario.node[13].nic.mac1609_4 	DroppedPacketsInMac 	0
scalar IntersectionExampleScenario.node[13].nic.mac1609_4 	TooLittleTime 	0
scalar IntersectionExampleScenario.node[13].nic.mac1609_4 	TimesIntoBackoff 	0
scalar IntersectionExampleScenario.node[13].nic.mac1609_4 	SlotsBackoff 	0
scalar IntersectionExampleScenario.node[13].nic.mac1609_4 	NumInternalContention 	0
scalar IntersectionExampleScenario.node[13].nic.mac1609_4 	totalBusyTime 	0
scalar IntersectionExampleScenario.node[13].veinsmobility 	startTime 	30.75
scalar IntersectionExampleScenario.node[13].veinsmobility 	totalTime 	114.5
scalar IntersectionExampleScenario.node[13].veinsmobility 	stopTime 	145.5
scalar IntersectionExampleScenario.node[13].veinsmobility 	minSpeed 	0
scalar IntersectionExampleScenario.node[13].veinsmobility 	maxSpeed 	15.64999961853
scalar IntersectionExampleScenario.node[13].veinsmobility 	totalDistance 	548.86370958438
scalar IntersectionExampleScenario.node[13].veinsmobility 	totalCO2Emission 	204.92468159916
scalar IntersectionExampleScenario.node[17].appl 	VehicleRemoved 	0
scalar IntersectionExampleScenario.node[17].appl 	ArrivedAtDest 	1
scalar IntersectionExampleScenario.node[17].appl 	IntersectionEnterTime 	41.25
scalar IntersectionExampleScenario.node[17].appl 	IntersectionExitTime 	130.31030572532
scalar IntersectionExampleScenario.node[17].appl 	NumberOfCollisions 	0
scalar IntersectionExampleScenario.node[17].nic.phy80211p 	busyTime 	0
scalar IntersectionExampleScenario.node[17].nic.mac1609_4 	ReceivedUnicastPackets 	0
scalar IntersectionExampleScenario.node[17].nic.mac1609_4 	ReceivedBroadcasts 	0
scalar IntersectionExampleScenario.node[17].nic.mac1609_4 	SentPackets 	0
scalar IntersectionExampleScenario.node[17].nic.mac1609_4 	SNIRLostPackets 	0
scalar IntersectionExampleScenario.node[17].nic.mac1609_4 	RXTXLostPackets 	0
scalar IntersectionExampleScenario.node[17].nic.mac1609_4 	TotalLostPackets 	0
scalar IntersectionExampleScenario.node[17].nic.mac1609_4 	DroppedPacketsInMac 	0
scalar IntersectionExampleScenario.node[17].nic.mac1609_4 	TooLittleTime 	0
scalar IntersectionExampleScenario.node[17].nic.mac1609_4 	TimesIntoBackoff 	0
scalar IntersectionExampleScenario.node[17].nic.mac1609_4 	SlotsBackoff 	0
scalar IntersectionExampleScenario.node[17].nic.mac1609_4 	NumInternalContention 	0
scalar IntersectionExampleScenario.node[17].nic.mac1609_4 	totalBusyTime 	0
scalar IntersectionExampleScenario.node[17].veinsmobility 	startTime 	41.25
scalar IntersectionExampleScenario.node[17].veinsmobility 	totalTime 	105.5
scalar IntersectionExampleScenario.node[17].veinsmobility 	stopTime 	147
scalar IntersectionExampleScenario.node[17].veinsmobility 	minSpeed 	0
scalar IntersectionExampleScenario.node[17].veinsmobility 	maxSpeed 	16.27499961853
scalar IntersectionExampleScenario.node[17].veinsmobility 	totalDistance 	546.76461878948
scalar IntersectionExampleScenario.node[17].veinsmobility 	totalCO2Emission 	199.65535474344
scalar IntersectionExampleScenario.node[18].appl 	VehicleRemoved 	0
scalar IntersectionExampleScenario.node[18].appl 	ArrivedAtDest 	1
scalar IntersectionExampleScenario.node[18].appl 	IntersectionEnterTime 	42.5
scalar IntersectionExampleScenario.node[18].appl 	IntersectionExitTime 	132.27587076696
scalar IntersectionExampleScenario.node[18].appl 	NumberOfCollisions 	0
scalar IntersectionExampleScenario.node[18].nic.phy80211p 	busyTime 	0
scalar IntersectionExampleScenario.node[18].nic.mac1609_4 	ReceivedUnicastPackets 	0
scalar IntersectionExampleScenario.node[18].nic.mac1609_4 	ReceivedBroadcasts 	0
scalar IntersectionExampleScenario.node[18].nic.mac1609_4 	SentPackets 	0
scalar IntersectionExampleScenario.node[18].nic.mac1609_4 	SNIRLostPackets 	0
scalar IntersectionExampleScenario.node[18].nic.mac1609_4 	RXTXLostPackets 	0
scalar IntersectionExampleScenario.node[18].nic.mac1609_4 	TotalLostPackets 	0
scalar IntersectionExampleScenario.node[18].nic.mac1609_4 	DroppedPacketsInMac 	0
scalar IntersectionExampleScenario.node[18].nic.mac1609_4 	TooLittleTime 	0
scalar IntersectionExampleScenario.node[18].nic.mac1609_4 	TimesIntoBackoff 	0
scalar IntersectionExampleScenario.node[18].nic.mac1609_4 	SlotsBackoff 	0
scalar IntersectionExampleScenario.node[18].nic.mac1609_4 	NumInternalContention 	0
scalar IntersectionExampleScenario.node[18].nic.mac1609_4 	totalBusyTime 	0
scalar IntersectionExampleScenario.node[18].veinsmobility 	startTime 	42.5
scalar IntersectionExampleScenario.node[18].veinsmobility 	totalTime 	104.75
scalar IntersectionExampleScenario.node[18].veinsmobility 	stopTime 	147.5
scalar IntersectionExampleScenario.node[18].veinsmobility 	minSpeed 	0
scalar IntersectionExampleScenario.node[18].veinsmobility 	maxSpeed 	16.385696411133
scalar IntersectionExampleScenario.node[18].veinsmobility 	totalDistance 	572.30853271484
scalar IntersectionExampleScenario.node[18].veinsmobility 	totalCO2Emission 	208.41879729617
scalar IntersectionExampleScenario.node[20].appl 	VehicleRemoved 	0
scalar IntersectionExampleScenario.node[20].appl 	ArrivedAtDest 	1
scalar IntersectionExampleScenario.node[20].appl 	IntersectionEnterTime 	44.5
scalar IntersectionExampleScenario.node[20].appl 	IntersectionExitTime 	134.52347685312
scalar IntersectionExampleScenario.node[20].appl 	NumberOfCollisions 	0
scalar IntersectionExampleScenario.node[20].nic.phy80211p 	busyTime 	0
scalar IntersectionExampleScenario.node[20].nic.mac1609_4 	ReceivedUnicastPackets 	0
scalar IntersectionExampleScenario.node[20].nic.mac1609_4 	ReceivedBroadcasts 	0
scalar IntersectionExampleScenario.node[20].nic.mac1609_4 	SentPackets 	0
scalar IntersectionExampleScenario.node[20].nic.mac1609_4 	SNIRLostPackets 	0
scalar IntersectionExampleScenario.node[20].nic.mac1609_4 	RXTXLostPackets 	0
scalar IntersectionExampleScenario.node[20].nic.mac1609_4 	TotalLostPackets 	0
scalar IntersectionExampleScenario.node[20].nic.mac1609_4 	DroppedPacketsInMac 	0
scalar IntersectionExampleScenario.node[20].nic.mac1609_4 	TooLittleTime 	0
scalar IntersectionExampleScenario.node[20].nic.mac1609_4 	TimesIntoBackoff 	0
scalar IntersectionExampleScenario.node[20].nic.mac1609_4 	SlotsBackoff 	0
scalar IntersectionExampleScenario.node[20].nic.mac1609_4 	NumInternalContention 	0
scalar IntersectionExampleScenario.node[20].nic.mac1609_4 	totalBusyTime 	0
scalar IntersectionExampleScenario.node[20].veinsmobility 	startTime 	44.5
scalar IntersectionExampleScenario.node[20].veinsmobility 	totalTime 	106.75
scalar IntersectionExampleScenario.node[20].veinsmobility 	stopTime 	151.5
scalar IntersectionExampleScenario.node[20].veinsmobility 	minSpeed 	0
scalar IntersectionExampleScenario.node[20].veinsmobility 	maxSpeed 	15.875
scalar IntersectionExampleScenario.node[20].veinsmobility 	totalDistance 	575.31711423921
scalar IntersectionExampleScenario.node[20].veinsmobility 	totalCO2Emission 	204.82566765055
scalar IntersectionExampleScenario.node[22].appl 	VehicleRemoved 	0
scalar IntersectionExampleScenario.node[22].appl 	ArrivedAtDest 	1
scalar IntersectionExampleScenario.node[22].appl 	IntersectionEnterTime 	55
scalar IntersectionExampleScenario.node[22].appl 	IntersectionExitTime 	136.84078993727
scalar IntersectionExampleScenario.node[22].appl 	NumberOfCollisions 	0
scalar IntersectionExampleScenario.node[22].nic.phy80211p 	busyTime 	0
scalar IntersectionExampleScenario.node[22].nic.mac1609_4 	ReceivedUnicastPackets 	0
scalar IntersectionExampleScenario.node[22].nic.mac1609_4 	ReceivedBroadcasts 	0
scalar IntersectionExampleScenario.node[22].nic.mac1609_4 	SentPackets 	0
scalar IntersectionExampleScenario.node[22].nic.mac1609_4 	SNIRLostPackets 	0
scalar IntersectionExampleScenario.node[22].nic.mac1609_4 	RXTXLostPackets 	0
scalar IntersectionExampleScenario.node[22].nic.mac1609_4 	TotalLostPackets 	0
scalar IntersectionExampleScenario.node[22].nic.mac1609_4 	DroppedPacketsInMac 	0
scalar IntersectionExampleScenario.node[22].nic.mac1609_4 	TooLittleTime 	0
scalar IntersectionExampleScenario.node[22].nic.mac1609_4 	TimesIntoBackoff 	0
scalar IntersectionExampleScenario.node[22].nic.mac1609_4 	SlotsBackoff 	0
scalar IntersectionExampleScenario.node[22].nic.mac1609_4 	NumInternalContention 	0
scalar IntersectionExampleScenario.node[22].nic.mac1609_4 	totalBusyTime 	0
scalar IntersectionExampleScenario.node[22].veinsmobility 	startTime 	55
scalar IntersectionExampleScenario.node[22].veinsmobility 	totalTime 	97.75
scalar IntersectionExampleScenario.node[22].veinsmobility 	stopTime 	153
scalar IntersectionExampleScenario.node[22].veinsmobility 	minSpeed 	0
scalar IntersectionExampleScenario.node[22].veinsmobility 	maxSpeed 	15.64999961853
scalar IntersectionExampleScenario.node[22].veinsmobility 	totalDistance 	551.57130432129
scalar IntersectionExampleScenario.node[22].veinsmobility 	totalCO2Emission 	186.57049704867
scalar IntersectionExampleScenario.node[23].appl 	VehicleRemoved 	0
scalar IntersectionExampleScenario.node[23].appl 	ArrivedAtDest 	1
scalar IntersectionExampleScenario.node[23].appl 	IntersectionEnterTime 	63.25
scalar IntersectionExampleScenario.node[23].appl 	IntersectionExitTime 	139.08254073781
scalar IntersectionExampleScenario.node[23].appl 	NumberOfCollisions 	0
scalar IntersectionExampleScenario.node[23].nic.phy80211p 	busyTime 	0
scalar IntersectionExampleScenario.node[23].nic.mac1609_4 	ReceivedUnicastPackets 	0
scalar IntersectionExampleScenario.node[23].nic.mac1609_4 	ReceivedBroadcasts 	0
scalar IntersectionExampleScenario.node[23].nic.mac1609_4 	SentPackets 	0
scalar IntersectionExampleScenario.node[23].nic.mac1609_4 	SNIRLostPackets 	0
scalar IntersectionExampleScenario.node[23].nic.mac1609_4 	RXTXLostPackets 	0
scalar IntersectionExampleScenario.node[23].nic.mac1609_4 	TotalLostPackets 	0
scalar IntersectionExampleScenario.node[23].nic.mac1609_4 	DroppedPacketsInMac 	0
scalar IntersectionExampleScenario.node[23].nic.mac1609_4 	TooLittleTime 	0
scalar IntersectionExampleScenario.node[23].nic.mac1609_4 	TimesIntoBackoff 	0
scalar IntersectionExampleScenario.node[23].nic.mac1609_4 	SlotsBackoff 	0
scalar IntersectionExampleScenario.node[23].nic.mac1609_4 	NumInternalContention 	0
scalar IntersectionExampleScenario.node[23].nic.mac1609_4 	totalBusyTime 	0
scalar IntersectionExampleScenario.node[23].veinsmobility 	startTime 	63.25
scalar IntersectionExampleScenario.node[23].veinsmobility 	totalTime 	91.5
scalar IntersectionExampleScenario.node[23].veinsmobility 	stopTime 	155
scalar IntersectionExampleScenario.node[23].veinsmobility 	minSpeed 	0
scalar IntersectionExampleScenario.node[23].veinsmobility 	maxSpeed 	15.64999961853
scalar IntersectionExampleScenario.node[23].veinsmobility 	totalDistance 	551.29484558755
scalar IntersectionExampleScenario.node[23].veinsmobility 	totalCO2Emission 	182.03150371882
scalar IntersectionExampleScenario.node[26].appl 	VehicleRemoved 	0
scalar IntersectionExampleScenario.node[26].appl 	ArrivedAtDest 	1
scalar IntersectionExampleScenario.node[26].appl 	IntersectionEnterTime 	66
scalar IntersectionExampleScenario.node[26].appl 	IntersectionExitTime 	141.26122385845
scalar IntersectionExampleScenario.node[26].appl 	NumberOfCollisions 	0
scalar IntersectionExampleScenario.node[26].nic.phy80211p 	busyTime 	0
scalar IntersectionExampleScenario.node[26].nic.mac1609_4 	ReceivedUnicastPackets 	0
scalar IntersectionExampleScenario.node[26].nic.mac1609_4 	ReceivedBroadcasts 	0
scalar IntersectionExampleScenario.node[26].nic.mac1609_4 	SentPackets 	0
scalar IntersectionExampleScenario.node[26].nic.mac1609_4 	SNIRLostPackets 	0
scalar IntersectionExampleScenario.node[26].nic.mac1609_4 	RXTXLostPackets 	0
scalar IntersectionExampleScenario.node[26].nic.mac1609_4 	TotalLostPackets 	0
scalar IntersectionExampleScenario.node[26].nic.mac1609_4 	DroppedPacketsInMac 	0
scalar IntersectionExampleScenario.node[26].nic.mac1609_4 	TooLittleTime 	0
scalar IntersectionExampleScenario.node[26].nic.mac1609_4 	TimesIntoBackoff 	0
scalar IntersectionExampleScenario.node[26].nic.mac1609_4 	SlotsBackoff 	0
scalar IntersectionExampleScenario.node[26].nic.mac1609_4 	NumInternalContention 	0
scalar IntersectionExampleScenario.node[26].nic.mac1609_4 	totalBusyTime 	0
scalar IntersectionExampleScenario.node[26].veinsmobility 	startTime 	66
scalar IntersectionExampleScenario.node[26].veinsmobility 	totalTime 	91.25
scalar IntersectionExampleScenario.node[26].veinsmobility 	stopTime 	157.5
scalar IntersectionExampleScenario.node[26].veinsmobility 	minSpeed 	0
scalar IntersectionExampleScenario.node[26].veinsmobility 	maxSpeed 	15.64999961853
scalar IntersectionExampleScenario.node[26].veinsmobility 	totalDistance 	565.60301212301
scalar IntersectionExampleScenario.node[26].veinsmobility 	totalCO2Emission 	184.03829343221
scalar IntersectionExampleScenario.node[28].appl 	VehicleRemoved 	0
scalar IntersectionExampleScenario.node[28].appl 	ArrivedAtDest 	1
scalar IntersectionExampleScenario.node[28].appl 	IntersectionEnterTime 	72.25
scalar IntersectionExampleScenario.node[28].appl 	IntersectionExitTime 	143.75920295808
scalar IntersectionExampleScenario.node[28].appl 	NumberOfCollisions 	0
scalar IntersectionExampleScenario.node[28].nic.phy80211p 	busyTime 	0
scalar IntersectionExampleScenario.node[28].nic.mac1609_4 	ReceivedUnicastPackets 	0
scalar IntersectionExampleScenario.node[28].nic.mac1609_4 	ReceivedBroadcasts 	0
scalar IntersectionExampleScenario.node[28].nic.mac1609_4 	SentPackets 	0
scalar IntersectionExampleScenario.node[28].nic.mac1609_4 	SNIRLostPackets 	0
scalar IntersectionExampleScenario.node[28].nic.mac1609_4 	RXTXLostPackets 	0
scalar IntersectionExampleScenario.node[28].nic.mac1609_4 	TotalLostPackets 	0
scalar IntersectionExampleScenario.node[28].nic.mac1609_4 	DroppedPacketsInMac 	0
scalar IntersectionExampleScenario.node[28].nic.mac1609_4 	TooLittleTime 	0
scalar IntersectionExampleScenario.node[28].nic.mac1609_4 	TimesIntoBackoff 	0
scalar IntersectionExampleScenario.node[28].nic.mac1609_4 	SlotsBackoff 	0
scalar IntersectionExampleScenario.node[28].nic.mac1609_4 	NumInternalContention 	0
scalar IntersectionExampleScenario.node[28].nic.mac1609_4 	totalBusyTime 	0
scalar IntersectionExampleScenario.node[28].veinsmobility 	startTime 	72.25
scalar IntersectionExampleScenario.node[28].veinsmobility 	totalTime 	87.75
scalar IntersectionExampleScenario.node[28].veinsmobility 	stopTime 	160.25
scalar IntersectionExampleScenario.node[28].veinsmobility 	minSpeed 	0
scalar IntersectionExampleScenario.node[28].veinsmobility 	maxSpeed 	16.5
scalar IntersectionExampleScenario.node[28].veinsmobility 	totalDistance 	546.22240752175
scalar IntersectionExampleScenario.node[28].veinsmobility 	totalCO2Emission 	190.31085237794
scalar IntersectionExampleScenario.node[30].appl 	VehicleRemoved 	0
scalar IntersectionExampleScenario.node[30].appl 	ArrivedAtDest 	1
scalar IntersectionExampleScenario.node[30].appl 	IntersectionEnterTime 	78.25
scalar IntersectionExampleScenario.node[30].appl 	IntersectionExitTime 	145.28146768882
scalar IntersectionExampleScenario.node[30].appl 	NumberOfCollisions 	0
scalar IntersectionExampleScenario.node[30].nic.phy80211p 	busyTime 	0
scalar IntersectionExampleScenario.node[30].nic.mac1609_4 	ReceivedUnicastPackets 	0
scalar IntersectionExampleScenario.node[30].nic.mac1609_4 	ReceivedBroadcasts 	0
scalar IntersectionExampleScenario.node[30].nic.mac1609_4 	SentPackets 	0
scalar IntersectionExampleScenario.node[30].nic.mac1609_4 	SNIRLostPackets 	0
scalar IntersectionExampleScenario.node[30].nic.mac1609_4 	RXTXLostPackets 	0
scalar IntersectionExampleScenario.node[30].nic.mac1609_4 	TotalLostPackets 	0
scalar IntersectionExampleScenario.node[30].nic.mac1609_4 	DroppedPacketsInMac 	0
scalar IntersectionExampleScenario.node[30].nic.mac1609_4 	TooLittleTime 	0
scalar IntersectionExampleScenario.node[30].nic.mac1609_4 	TimesIntoBackoff 	0
scalar IntersectionExampleScenario.node[30].nic.mac1609_4 	SlotsBackoff 	0
scalar IntersectionExampleScenario.node[30].nic.mac1609_4 	NumInternalContention 	0
scalar IntersectionExampleScenario.node[30].nic.mac1609_4 	totalBusyTime 	0
scalar IntersectionExampleScenario.node[30].veinsmobility 	startTime 	78.25
scalar IntersectionExampleScenario.node[30].veinsmobility 	totalTime 	82.5
scalar IntersectionExampleScenario.node[30].veinsmobility 	stopTime 	161
scalar IntersectionExampleScenario.node[30].veinsmobility 	minSpeed 	0
scalar IntersectionExampleScenario.node[30].veinsmobility 	maxSpeed 	16.066253662109
scalar IntersectionExampleScenario.node[30].veinsmobility 	totalDistance 	553.99601745605
scalar IntersectionExampleScenario.node[30].veinsmobility 	totalCO2Emission 	181.77691292039
scalar IntersectionExampleScenario.node[33].appl 	VehicleRemoved 	0
scalar IntersectionExampleScenario.node[33].appl 	ArrivedAtDest 	1
scalar IntersectionExampleScenario.node[33].appl 	IntersectionEnterTime 	89
scalar IntersectionExampleScenario.node[33].appl 	IntersectionExitTime 	147.37478539057
scalar IntersectionExampleScenario.node[33].appl 	NumberOfCollisions 	0
scalar IntersectionExampleScenario.node[33].nic.phy80211p 	busyTime 	0
scalar IntersectionExampleScenario.node[33].nic.mac1609_4 	ReceivedUnicastPackets 	0
scalar IntersectionExampleScenario.node[33].nic.mac1609_4 	ReceivedBroadcasts 	0
scalar IntersectionExampleScenario.node[33].nic.mac1609_4 	SentPackets 	0
scalar IntersectionExampleScenario.node[33].nic.mac1609_4 	SNIRLostPackets 	0
scalar IntersectionExampleScenario.node[33].nic.mac1609_4 	RXTXLostPackets 	0
scalar IntersectionExampleScenario.node[33].nic.mac1609_4 	TotalLostPackets 	0
scalar IntersectionExampleScenario.node[33].nic.mac1609_4 	DroppedPacketsInMac 	0
scalar IntersectionExampleScenario.node[33].nic.mac1609_4 	TooLittleTime 	0
scalar IntersectionExampleScenario.node[33].nic.mac1609_4 	TimesIntoBackoff 	0
scalar IntersectionExampleScenario.node[33].nic.mac1609_4 	SlotsBackoff 	0
scalar IntersectionExampleScenario.node[33].nic.mac1609_4 	NumInternalContention 	0
scalar IntersectionExampleScenario.node[33].nic.mac1609_4 	totalBusyTime 	0
scalar IntersectionExampleScenario.node[33].veinsmobility 	startTime 	89
scalar IntersectionExampleScenario.node[33].veinsmobility 	totalTime 	73.75
scalar IntersectionExampleScenario.node[33].veinsmobility 	stopTime 	163
scalar IntersectionExampleScenario.node[33].veinsmobility 	minSpeed 	0
scalar IntersectionExampleScenario.node[33].veinsmobility 	maxSpeed 	15.957239151001
scalar IntersectionExampleScenario.node[33].veinsmobility 	totalDistance 	551.19505310059
scalar IntersectionExampleScenario.node[33].veinsmobility 	totalCO2Emission 	167.42108568819
scalar IntersectionExampleScenario.node[37].appl 	VehicleRemoved 	0
scalar IntersectionExampleScenario.node[37].appl 	ArrivedAtDest 	1
scalar IntersectionExampleScenario.node[37].appl 	IntersectionEnterTime 	98.25
scalar IntersectionExampleScenario.node[37].appl 	IntersectionExitTime 	149.31730796146
scalar IntersectionExampleScenario.node[37].appl 	NumberOfCollisions 	0
scalar IntersectionExampleScenario.node[37].nic.phy80211p 	busyTime 	0
scalar IntersectionExampleScenario.node[37].nic.mac1609_4 	ReceivedUnicastPackets 	0
scalar IntersectionExampleScenario.node[37].nic.mac1609_4 	ReceivedBroadcasts 	0
scalar IntersectionExampleScenario.node[37].nic.mac1609_4 	SentPackets 	0
scalar IntersectionExampleScenario.node[37].nic.mac1609_4 	SNIRLostPackets 	0
scalar IntersectionExampleScenario.node[37].nic.mac1609_4 	RXTXLostPackets 	0
scalar IntersectionExampleScenario.node[37].nic.mac1609_4 	TotalLostPackets 	0
scalar IntersectionExampleScenario.node[37].nic.mac1609_4 	DroppedPacketsInMac 	0
scalar IntersectionExampleScenario.node[37].nic.mac1609_4 	TooLittleTime 	0
scalar IntersectionExampleScenario.node[37].nic.mac1609_4 	TimesIntoBackoff 	0
scalar IntersectionExampleScenario.node[37].nic.mac1609_4 	SlotsBackoff 	0
scalar IntersectionExampleScenario.node[37].nic.mac1609_4 	NumInternalContention 	0
scalar IntersectionExampleScenario.node[37].nic.mac1609_4 	totalBusyTime 	0
scalar IntersectionExampleScenario.node[37].veinsmobility 	startTime 	98.25
scalar IntersectionExampleScenario.node[37].veinsmobility 	totalTime 	67
scalar IntersectionExampleScenario.node[37].veinsmobility 	stopTime 	165.5
scalar IntersectionExampleScenario.node[37].veinsmobility 	minSpeed 	0
scalar IntersectionExampleScenario.node[37].veinsmobility 	maxSpeed 	15.5
scalar IntersectionExampleScenario.node[37].veinsmobility 	totalDistance 	525.27479553223
scalar IntersectionExampleScenario.node[37].veinsmobility 	totalCO2Emission 	154.40749381613
scalar IntersectionExampleScenario.node[47].appl 	VehicleRemoved 	0
scalar IntersectionExampleScenario.node[47].appl 	ArrivedAtDest 	1
scalar IntersectionExampleScenario.node[47].appl 	IntersectionEnterTime 	127
scalar IntersectionExampleScenario.node[47].appl 	IntersectionExitTime 	150.53808580351
scalar IntersectionExampleScenario.node[47].appl 	NumberOfCollisions 	0
scalar IntersectionExampleScenario.node[47].nic.phy80211p 	busyTime 	0
scalar IntersectionExampleScenario.node[47].nic.mac1609_4 	ReceivedUnicastPackets 	0
scalar IntersectionExampleScenario.node[47].nic.mac1609_4 	ReceivedBroadcasts 	0
scalar IntersectionExampleScenario.node[47].nic.mac1609_4 	SentPackets 	0
scalar IntersectionExampleScenario.node[47].nic.mac1609_4 	SNIRLostPackets 	0
scalar IntersectionExampleScenario.node[47].nic.mac1609_4 	RXTXLostPackets 	0
scalar IntersectionExampleScenario.node[47].nic.mac1609_4 	TotalLostPackets 	0
scalar IntersectionExampleScenario.node[47].nic.mac1609_4 	DroppedPacketsInMac 	0
scalar IntersectionExampleScenario.node[47].nic.mac1609_4 	TooLittleTime 	0
scalar IntersectionExampleScenario.node[47].nic.mac1609_4 	TimesIntoBackoff 	0
scalar IntersectionExampleScenario.node[47].nic.mac1609_4 	SlotsBackoff 	0
scalar IntersectionExampleScenario.node[47].nic.mac1609_4 	NumInternalContention 	0
scalar IntersectionExampleScenario.node[47].nic.mac1609_4 	totalBusyTime 	0
scalar IntersectionExampleScenario.node[47].veinsmobility 	startTime 	127
scalar IntersectionExampleScenario.node[47].veinsmobility 	totalTime 	40
scalar IntersectionExampleScenario.node[47].veinsmobility 	stopTime 	167.25
scalar IntersectionExampleScenario.node[47].veinsmobility 	minSpeed 	5.6500000953674
scalar IntersectionExampleScenario.node[47].veinsmobility 	maxSpeed 	15.02499961853
scalar IntersectionExampleScenario.node[47].veinsmobility 	totalDistance 	551.98734283447
scalar IntersectionExampleScenario.node[47].veinsmobility 	totalCO2Emission 	113.58977997837
scalar IntersectionExampleScenario.node[35].appl 	VehicleRemoved 	0
scalar IntersectionExampleScenario.node[35].appl 	ArrivedAtDest 	1
scalar IntersectionExampleScenario.node[35].appl 	IntersectionEnterTime 	97.25
scalar IntersectionExampleScenario.node[35].appl 	IntersectionExitTime 	151.60212942012
scalar IntersectionExampleScenario.node[35].appl 	NumberOfCollisions 	0
scalar IntersectionExampleScenario.node[35].nic.phy80211p 	busyTime 	0
scalar IntersectionExampleScenario.node[35].nic.mac1609_4 	ReceivedUnicastPackets 	0
scalar IntersectionExampleScenario.node[35].nic.mac1609_4 	ReceivedBroadcasts 	0
scalar IntersectionExampleScenario.node[35].nic.mac1609_4 	SentPackets 	0
scalar IntersectionExampleScenario.node[35].nic.mac1609_4 	SNIRLostPackets 	0
scalar IntersectionExampleScenario.node[35].nic.mac1609_4 	RXTXLostPackets 	0
scalar IntersectionExampleScenario.node[35].nic.mac1609_4 	TotalLostPackets 	0
scalar IntersectionExampleScenario.node[35].nic.mac1609_4 	DroppedPacketsInMac 	0
scalar IntersectionExampleScenario.node[35].nic.mac1609_4 	TooLittleTime 	0
scalar IntersectionExampleScenario.node[35].nic.mac1609_4 	TimesIntoBackoff 	0
scalar IntersectionExampleScenario.node[35].nic.mac1609_4 	SlotsBackoff 	0
scalar IntersectionExampleScenario.node[35].nic.mac1609_4 	NumInternalContention 	0
scalar IntersectionExampleScenario.node[35].nic.mac1609_4 	totalBusyTime 	0
scalar IntersectionExampleScenario.node[35].veinsmobility 	startTime 	97.25
scalar IntersectionExampleScenario.node[35].veinsmobility 	totalTime 	70
scalar IntersectionExampleScenario.node[35].veinsmobility 	stopTime 	167.5
scalar IntersectionExampleScenario.node[35].veinsmobility 	minSpeed 	0
scalar IntersectionExampleScenario.node[35].veinsmobility 	maxSpeed 	15.661291122437
scalar IntersectionExampleScenario.node[35].veinsmobility 	totalDistance 	552.57257080078
scalar IntersectionExampleScenario.node[35].veinsmobility 	totalCO2Emission 	176.05195846188
scalar IntersectionExampleScenario.node[36].appl 	VehicleRemoved 	0
scalar IntersectionExampleScenario.node[36].appl 	ArrivedAtDest 	1
scalar IntersectionExampleScenario.node[36].appl 	IntersectionEnterTime 	97.75
scalar IntersectionExampleScenario.node[36].appl 	IntersectionExitTime 	153.3201232834
scalar IntersectionExampleScenario.node[36].appl 	NumberOfCollisions 	0
scalar IntersectionExampleScenario.node[36].nic.phy80211p 	busyTime 	0
scalar IntersectionExampleScenario.node[36].nic.mac1609_4 	ReceivedUnicastPackets 	0
scalar IntersectionExampleScenario.node[36].nic.mac1609_4 	ReceivedBroadcasts 	0
scalar IntersectionExampleScenario.node[36].nic.mac1609_4 	SentPackets 	0
scalar IntersectionExampleScenario.node[36].nic.mac1609_4 	SNIRLostPackets 	0
scalar IntersectionExampleScenario.node[36].nic.mac1609_4 	RXTXLostPackets 	0
scalar IntersectionExampleScenario.node[36].nic.mac1609_4 	TotalLostPackets 	0
scalar IntersectionExampleScenario.node[36].nic.mac1609_4 	DroppedPacketsInMac 	0
scalar IntersectionExampleScenario.node[36].nic.mac1609_4 	TooLittleTime 	0
scalar IntersectionExampleScenario.node[36].nic.mac1609_4 	TimesIntoBackoff 	0
scalar IntersectionExampleScenario.node[36].nic.mac1609_4 	SlotsBackoff 	0
scalar IntersectionExampleScenario.node[36].nic.mac1609_4 	NumInternalContention 	0
scalar IntersectionExampleScenario.node[36].nic.mac1609_4 	totalBusyTime 	0
scalar IntersectionExampleScenario.node[36].veinsmobility 	startTime 	97.75
scalar IntersectionExampleScenario.node[36].veinsmobility 	totalTime 	70.75
scalar IntersectionExampleScenario.node[36].veinsmobility 	stopTime 	168.75
scalar IntersectionExampleScenario.node[36].veinsmobility 	minSpeed 	0
scalar IntersectionExampleScenario.node[36].veinsmobility 	maxSpeed 	16.105419158936
scalar IntersectionExampleScenario.node[36].veinsmobility 	totalDistance 	575.72514343262
scalar IntersectionExampleScenario.node[36].veinsmobility 	totalCO2Emission 	180.61741274786
scalar IntersectionExampleScenario.node[52].appl 	VehicleRemoved 	0
scalar IntersectionExampleScenario.node[52].appl 	ArrivedAtDest 	1
scalar IntersectionExampleScenario.node[52].appl 	IntersectionEnterTime 	138.25
scalar IntersectionExampleScenario.node[52].appl 	IntersectionExitTime 	162.28666931423
scalar IntersectionExampleScenario.node[52].appl 	NumberOfCollisions 	0
scalar IntersectionExampleScenario.node[52].nic.phy80211p 	busyTime 	0
scalar IntersectionExampleScenario.node[52].nic.mac1609_4 	ReceivedUnicastPackets 	0
scalar IntersectionExampleScenario.node[52].nic.mac1609_4 	ReceivedBroadcasts 	0
scalar IntersectionExampleScenario.node[52].nic.mac1609_4 	SentPackets 	0
scalar IntersectionExampleScenario.node[52].nic.mac1609_4 	SNIRLostPackets 	0
scalar IntersectionExampleScenario.node[52].nic.mac1609_4 	RXTXLostPackets 	0
scalar IntersectionExampleScenario.node[52].nic.mac1609_4 	TotalLostPackets 	0
scalar IntersectionExampleScenario.node[52].nic.mac1609_4 	DroppedPacketsInMac 	0
scalar IntersectionExampleScenario.node[52].nic.mac1609_4 	TooLittleTime 	0
scalar IntersectionExampleScenario.node[52].nic.mac1609_4 	TimesIntoBackoff 	0
scalar IntersectionExampleScenario.node[52].nic.mac1609_4 	SlotsBackoff 	0
scalar IntersectionExampleScenario.node[52].nic.mac1609_4 	NumInternalContention 	0
scalar IntersectionExampleScenario.node[52].nic.mac1609_4 	totalBusyTime 	0
scalar IntersectionExampleScenario.node[52].veinsmobility 	startTime 	138.25
scalar IntersectionExampleScenario.node[52].veinsmobility 	totalTime 	41.25
scalar IntersectionExampleScenario.node[52].veinsmobility 	stopTime 	179.75
scalar IntersectionExampleScenario.node[52].veinsmobility 	minSpeed 	5.6500000953674
scalar IntersectionExampleScenario.node[52].veinsmobility 	maxSpeed 	15.25
scalar IntersectionExampleScenario.node[52].veinsmobility 	totalDistance 	544.92896903643
scalar IntersectionExampleScenario.node[52].veinsmobility 	totalCO2Emission 	123.27490658231
scalar IntersectionExampleScenario.node[53].appl 	VehicleRemoved 	0
scalar IntersectionExampleScenario.node[53].appl 	ArrivedAtDest 	1
scalar IntersectionExampleScenario.node[53].appl 	IntersectionEnterTime 	139
scalar IntersectionExampleScenario.node[53].appl 	IntersectionExitTime 	165.32718177276
scalar IntersectionExampleScenario.node[53].appl 	NumberOfCollisions 	0
scalar IntersectionExampleScenario.node[53].nic.phy80211p 	busyTime 	0
scalar IntersectionExampleScenario.node[53].nic.mac1609_4 	ReceivedUnicastPackets 	0
scalar IntersectionExampleScenario.node[53].nic.mac1609_4 	ReceivedBroadcasts 	0
scalar IntersectionExampleScenario.node[53].nic.mac1609_4 	SentPackets 	0
scalar IntersectionExampleScenario.node[53].nic.mac1609_4 	SNIRLostPackets 	0
scalar IntersectionExampleScenario.node[53].nic.mac1609_4 	RXTXLostPackets 	0
scalar IntersectionExampleScenario.node[53].nic.mac1609_4 	TotalLostPackets 	0
scalar IntersectionExampleScenario.node[53].nic.mac1609_4 	DroppedPacketsInMac 	0
scalar IntersectionExampleScenario.node[53].nic.mac1609_4 	TooLittleTime 	0
scalar IntersectionExampleScenario.node[53].nic.mac1609_4 	TimesIntoBackoff 	0
scalar IntersectionExampleScenario.node[53].nic.mac1609_4 	SlotsBackoff 	0
scalar IntersectionExampleScenario.node[53].nic.mac1609_4 	NumInternalContention 	0
scalar IntersectionExampleScenario.node[53].nic.mac1609_4 	totalBusyTime 	0
scalar IntersectionExampleScenario.node[53].veinsmobility 	startTime 	139
scalar IntersectionExampleScenario.node[53].veinsmobility 	totalTime 	43.5
scalar IntersectionExampleScenario.node[53].veinsmobility 	stopTime 	182.75
scalar IntersectionExampleScenario.node[53].veinsmobility 	minSpeed 	5.6500000953674
scalar IntersectionExampleScenario.node[53].veinsmobility 	maxSpeed 	14.625
scalar IntersectionExampleScenario.node[53].veinsmobility 	totalDistance 	566.10513249957
scalar IntersectionExampleScenario.node[53].veinsmobility 	totalCO2Emission 	126.09486651174
scalar IntersectionExampleScenario.node[57].appl 	VehicleRemoved 	0
scalar IntersectionExampleScenario.node[57].appl 	ArrivedAtDest 	1
scalar IntersectionExampleScenario.node[57].appl 	IntersectionEnterTime 	149.25
scalar IntersectionExampleScenario.node[57].appl 	IntersectionExitTime 	171.8429786764
scalar IntersectionExampleScenario.node[57].appl 	NumberOfCollisions 	0
scalar IntersectionExampleScenario.node[57].nic.phy80211p 	busyTime 	0
scalar IntersectionExampleScenario.node[57].nic.mac1609_4 	ReceivedUnicastPackets 	0
scalar IntersectionExampleScenario.node[57].nic.mac1609_4 	ReceivedBroadcasts 	0
scalar IntersectionExampleScenario.node[57].nic.mac1609_4 	SentPackets 	0
scalar IntersectionExampleScenario.node[57].nic.mac1609_4 	SNIRLostPackets 	0
scalar IntersectionExampleScenario.node[57].nic.mac1609_4 	RXTXLostPackets 	0
scalar IntersectionExampleScenario.node[57].nic.mac1609_4 	TotalLostPackets 	0
scalar IntersectionExampleScenario.node[57].nic.mac1609_4 	DroppedPacketsInMac 	0
scalar IntersectionExampleScenario.node[57].nic.mac1609_4 	TooLittleTime 	0
scalar IntersectionExampleScenario.node[57].nic.mac1609_4 	TimesIntoBackoff 	0
scalar IntersectionExampleScenario.node[57].nic.mac1609_4 	SlotsBackoff 	0
scalar IntersectionExampleScenario.node[57].nic.mac1609_4 	NumInternalContention 	0
scalar IntersectionExampleScenario.node[57].nic.mac1609_4 	totalBusyTime 	0
scalar IntersectionExampleScenario.node[57].veinsmobility 	startTime 	149.25
scalar IntersectionExampleScenario.node[57].veinsmobility 	totalTime 	38
scalar IntersectionExampleScenario.node[57].veinsmobility 	stopTime 	187.5
scalar IntersectionExampleScenario.node[57].veinsmobility 	minSpeed 	5.6500000953674
scalar IntersectionExampleScenario.node[57].veinsmobility 	maxSpeed 	16.125
scalar IntersectionExampleScenario.node[57].veinsmobility 	totalDistance 	551.86968994141
scalar IntersectionExampleScenario.node[57].veinsmobility 	totalCO2Emission 	120.01025466707
scalar IntersectionExampleScenario.node[24].appl 	VehicleRemoved 	0
scalar IntersectionExampleScenario.node[24].appl 	ArrivedAtDest 	1
scalar IntersectionExampleScenario.node[24].appl 	IntersectionEnterTime 	64.25
scalar IntersectionExampleScenario.node[24].appl 	IntersectionExitTime 	175.56910557172
scalar IntersectionExampleScenario.node[24].appl 	NumberOfCollisions 	0
scalar IntersectionExampleScenario.node[24].nic.phy80211p 	busyTime 	0
scalar IntersectionExampleScenario.node[24].nic.mac1609_4 	ReceivedUnicastPackets 	0
scalar IntersectionExampleScenario.node[24].nic.mac1609_4 	ReceivedBroadcasts 	0
scalar IntersectionExampleScenario.node[24].nic.mac1609_4 	SentPackets 	0
scalar IntersectionExampleScenario.node[24].nic.mac1609_4 	SNIRLostPackets 	0
scalar IntersectionExampleScenario.node[24].nic.mac1609_4 	RXTXLostPackets 	0
scalar IntersectionExampleScenario.node[24].nic.mac1609_4 	TotalLostPackets 	0
scalar IntersectionExampleScenario.node[24].nic.mac1609_4 	DroppedPacketsInMac 	0
scalar IntersectionExampleScenario.node[24].nic.mac1609_4 	TooLittleTime 	0
scalar IntersectionExampleScenario.node[24].nic.mac1609_4 	TimesIntoBackoff 	0
scalar IntersectionExampleScenario.node[24].nic.mac1609_4 	SlotsBackoff 	0
scalar IntersectionExampleScenario.node[24].nic.mac1609_4 	NumInternalContention 	0
scalar IntersectionExampleScenario.node[24].nic.mac1609_4 	totalBusyTime 	0
scalar IntersectionExampleScenario.node[24].veinsmobility 	startTime 	64.25
scalar IntersectionExampleScenario.node[24].veinsmobility 	totalTime 	127.5
scalar IntersectionExampleScenario.node[24].veinsmobility 	stopTime 	192
scalar IntersectionExampleScenario.node[24].veinsmobility 	minSpeed 	0
scalar IntersectionExampleScenario.node[24].veinsmobility 	maxSpeed 	16.27499961853
scalar IntersectionExampleScenario.node[24].veinsmobility 	totalDistance 	542.93443967254
scalar IntersectionExampleScenario.node[24].veinsmobility 	totalCO2Emission 	221.79271637065
scalar IntersectionExampleScenario.node[25].appl 	VehicleRemoved 	0
scalar IntersectionExampleScenario.node[25].appl 	ArrivedAtDest 	1
scalar IntersectionExampleScenario.node[25].appl 	IntersectionEnterTime 	65.25
scalar IntersectionExampleScenario.node[25].appl 	IntersectionExitTime 	177.84811708742
scalar IntersectionExampleScenario.node[25].appl 	NumberOfCollisions 	0
scalar IntersectionExampleScenario.node[25].nic.phy80211p 	busyTime 	0
scalar IntersectionExampleScenario.node[25].nic.mac1609_4 	ReceivedUnicastPackets 	0
scalar IntersectionExampleScenario.node[25].nic.mac1609_4 	ReceivedBroadcasts 	0
scalar IntersectionExampleScenario.node[25].nic.mac1609_4 	SentPackets 	0
scalar IntersectionExampleScenario.node[25].nic.mac1609_4 	SNIRLostPackets 	0
scalar IntersectionExampleScenario.node[25].nic.mac1609_4 	RXTXLostPackets 	0
scalar IntersectionExampleScenario.node[25].nic.mac1609_4 	TotalLostPackets 	0
scalar IntersectionExampleScenario.node[25].nic.mac1609_4 	DroppedPacketsInMac 	0
scalar IntersectionExampleScenario.node[25].nic.mac1609_4 	TooLittleTime 	0
scalar IntersectionExampleScenario.node[25].nic.mac1609_4 	TimesIntoBackoff 	0
scalar IntersectionExampleScenario.node[25].nic.mac1609_4 	SlotsBackoff 	0
scalar IntersectionExampleScenario.node[25].nic.mac1609_4 	NumInternalContention 	0
scalar IntersectionExampleScenario.node[25].nic.mac1609_4 	totalBusyTime 	0
scalar IntersectionExampleScenario.node[25].veinsmobility 	startTime 	65.25
scalar IntersectionExampleScenario.node[25].veinsmobility 	totalTime 	129
scalar IntersectionExampleScenario.node[25].veinsmobility 	stopTime 	194.5
scalar IntersectionExampleScenario.node[25].veinsmobility 	minSpeed 	0
scalar IntersectionExampleScenario.node[25].veinsmobility 	maxSpeed 	15.875
scalar IntersectionExampleScenario.node[25].veinsmobility 	totalDistance 	566.13188868587
scalar IntersectionExampleScenario.node[25].veinsmobility 	totalCO2Emission 	223.15852887695
scalar IntersectionExampleScenario.node[27].appl 	VehicleRemoved 	0
scalar IntersectionExampleScenario.node[27].appl 	ArrivedAtDest 	1
scalar IntersectionExampleScenario.node[27].appl 	IntersectionEnterTime 	69.5
scalar IntersectionExampleScenario.node[27].appl 	IntersectionExitTime 	179.81063677793
scalar IntersectionExampleScenario.node[27].appl 	NumberOfCollisions 	0
scalar IntersectionExampleScenario.node[27].nic.phy80211p 	busyTime 	0
scalar IntersectionExampleScenario.node[27].nic.mac1609_4 	ReceivedUnicastPackets 	0
scalar IntersectionExampleScenario.node[27].nic.mac1609_4 	ReceivedBroadcasts 	0
scalar IntersectionExampleScenario.node[27].nic.mac1609_4 	SentPackets 	0
scalar IntersectionExampleScenario.node[27].nic.mac1609_4 	SNIRLostPackets 	0
scalar IntersectionExampleScenario.node[27].nic.mac1609_4 	RXTXLostPackets 	0
scalar IntersectionExampleScenario.node[27].nic.mac1609_4 	TotalLostPackets 	0
scalar IntersectionExampleScenario.node[27].nic.mac1609_4 	DroppedPacketsInMac 	0
scalar IntersectionExampleScenario.node[27].nic.mac1609_4 	TooLittleTime 	0
scalar IntersectionExampleScenario.node[27].nic.mac1609_4 	TimesIntoBackoff 	0
scalar IntersectionExampleScenario.node[27].nic.mac1609_4 	SlotsBackoff 	0
[...]
scalar IntersectionExampleScenario.node[677].veinsmobility 	totalDistance 	252.46900939941
scalar IntersectionExampleScenario.node[677].veinsmobility 	totalCO2Emission 	91.260090255575
scalar IntersectionExampleScenario.node[678].appl 	VehicleRemoved 	0
scalar IntersectionExampleScenario.node[678].appl 	ArrivedAtDest 	0
scalar IntersectionExampleScenario.node[678].appl 	IntersectionEnterTime 	1763
scalar IntersectionExampleScenario.node[678].appl 	IntersectionExitTime 	-1
scalar IntersectionExampleScenario.node[678].appl 	NumberOfCollisions 	0
scalar IntersectionExampleScenario.node[678].nic.phy80211p 	busyTime 	0
scalar IntersectionExampleScenario.node[678].nic.mac1609_4 	ReceivedUnicastPackets 	0
scalar IntersectionExampleScenario.node[678].nic.mac1609_4 	ReceivedBroadcasts 	0
scalar IntersectionExampleScenario.node[678].nic.mac1609_4 	SentPackets 	0
scalar IntersectionExampleScenario.node[678].nic.mac1609_4 	SNIRLostPackets 	0
scalar IntersectionExampleScenario.node[678].nic.mac1609_4 	RXTXLostPackets 	0
scalar IntersectionExampleScenario.node[678].nic.mac1609_4 	TotalLostPackets 	0
scalar IntersectionExampleScenario.node[678].nic.mac1609_4 	DroppedPacketsInMac 	0
scalar IntersectionExampleScenario.node[678].nic.mac1609_4 	TooLittleTime 	0
scalar IntersectionExampleScenario.node[678].nic.mac1609_4 	TimesIntoBackoff 	0
scalar IntersectionExampleScenario.node[678].nic.mac1609_4 	SlotsBackoff 	0
scalar IntersectionExampleScenario.node[678].nic.mac1609_4 	NumInternalContention 	0
scalar IntersectionExampleScenario.node[678].nic.mac1609_4 	totalBusyTime 	0
scalar IntersectionExampleScenario.node[678].veinsmobility 	startTime 	1763
scalar IntersectionExampleScenario.node[678].veinsmobility 	totalTime 	37
scalar IntersectionExampleScenario.node[678].veinsmobility 	stopTime 	1800
scalar IntersectionExampleScenario.node[678].veinsmobility 	minSpeed 	0
scalar IntersectionExampleScenario.node[678].veinsmobility 	maxSpeed 	14.39999961853
scalar IntersectionExampleScenario.node[678].veinsmobility 	totalDistance 	255.12969970703
scalar IntersectionExampleScenario.node[678].veinsmobility 	totalCO2Emission 	71.655690286834
scalar IntersectionExampleScenario.node[679].appl 	VehicleRemoved 	0
scalar IntersectionExampleScenario.node[679].appl 	ArrivedAtDest 	0
scalar IntersectionExampleScenario.node[679].appl 	IntersectionEnterTime 	1764
scalar IntersectionExampleScenario.node[679].appl 	IntersectionExitTime 	-1
scalar IntersectionExampleScenario.node[679].appl 	NumberOfCollisions 	0
scalar IntersectionExampleScenario.node[679].nic.phy80211p 	busyTime 	0
scalar IntersectionExampleScenario.node[679].nic.mac1609_4 	ReceivedUnicastPackets 	0
scalar IntersectionExampleScenario.node[679].nic.mac1609_4 	ReceivedBroadcasts 	0
scalar IntersectionExampleScenario.node[679].nic.mac1609_4 	SentPackets 	0
scalar IntersectionExampleScenario.node[679].nic.mac1609_4 	SNIRLostPackets 	0
scalar IntersectionExampleScenario.node[679].nic.mac1609_4 	RXTXLostPackets 	0
scalar IntersectionExampleScenario.node[679].nic.mac1609_4 	TotalLostPackets 	0
scalar IntersectionExampleScenario.node[679].nic.mac1609_4 	DroppedPacketsInMac 	0
scalar IntersectionExampleScenario.node[679].nic.mac1609_4 	TooLittleTime 	0
scalar IntersectionExampleScenario.node[679].nic.mac1609_4 	TimesIntoBackoff 	0
scalar IntersectionExampleScenario.node[679].nic.mac1609_4 	SlotsBackoff 	0
scalar IntersectionExampleScenario.node[679].nic.mac1609_4 	NumInternalContention 	0
scalar IntersectionExampleScenario.node[679].nic.mac1609_4 	totalBusyTime 	0
scalar IntersectionExampleScenario.node[679].veinsmobility 	startTime 	1764
scalar IntersectionExampleScenario.node[679].veinsmobility 	totalTime 	36
scalar IntersectionExampleScenario.node[679].veinsmobility 	stopTime 	1800
scalar IntersectionExampleScenario.node[679].veinsmobility 	minSpeed 	0
scalar IntersectionExampleScenario.node[679].veinsmobility 	maxSpeed 	15.504096984863
scalar IntersectionExampleScenario.node[679].veinsmobility 	totalDistance 	269.30151367188
scalar IntersectionExampleScenario.node[679].veinsmobility 	totalCO2Emission 	78.128449823502
scalar IntersectionExampleScenario.node[680].appl 	VehicleRemoved 	0
scalar IntersectionExampleScenario.node[680].appl 	ArrivedAtDest 	0
scalar IntersectionExampleScenario.node[680].appl 	IntersectionEnterTime 	1781.75
scalar IntersectionExampleScenario.node[680].appl 	IntersectionExitTime 	-1
scalar IntersectionExampleScenario.node[680].appl 	NumberOfCollisions 	0
scalar IntersectionExampleScenario.node[680].nic.phy80211p 	busyTime 	0
scalar IntersectionExampleScenario.node[680].nic.mac1609_4 	ReceivedUnicastPackets 	0
scalar IntersectionExampleScenario.node[680].nic.mac1609_4 	ReceivedBroadcasts 	0
scalar IntersectionExampleScenario.node[680].nic.mac1609_4 	SentPackets 	0
scalar IntersectionExampleScenario.node[680].nic.mac1609_4 	SNIRLostPackets 	0
scalar IntersectionExampleScenario.node[680].nic.mac1609_4 	RXTXLostPackets 	0
scalar IntersectionExampleScenario.node[680].nic.mac1609_4 	TotalLostPackets 	0
scalar IntersectionExampleScenario.node[680].nic.mac1609_4 	DroppedPacketsInMac 	0
scalar IntersectionExampleScenario.node[680].nic.mac1609_4 	TooLittleTime 	0
scalar IntersectionExampleScenario.node[680].nic.mac1609_4 	TimesIntoBackoff 	0
scalar IntersectionExampleScenario.node[680].nic.mac1609_4 	SlotsBackoff 	0
scalar IntersectionExampleScenario.node[680].nic.mac1609_4 	NumInternalContention 	0
scalar IntersectionExampleScenario.node[680].nic.mac1609_4 	totalBusyTime 	0
scalar IntersectionExampleScenario.node[680].veinsmobility 	startTime 	1781.75
scalar IntersectionExampleScenario.node[680].veinsmobility 	totalTime 	18.25
scalar IntersectionExampleScenario.node[680].veinsmobility 	stopTime 	1800
scalar IntersectionExampleScenario.node[680].veinsmobility 	minSpeed 	5.6500000953674
scalar IntersectionExampleScenario.node[680].veinsmobility 	maxSpeed 	15.64999961853
scalar IntersectionExampleScenario.node[680].veinsmobility 	totalDistance 	256.01440429688
scalar IntersectionExampleScenario.node[680].veinsmobility 	totalCO2Emission 	61.63267876188
scalar IntersectionExampleScenario.node[681].appl 	VehicleRemoved 	0
scalar IntersectionExampleScenario.node[681].appl 	ArrivedAtDest 	0
scalar IntersectionExampleScenario.node[681].appl 	IntersectionEnterTime 	1783
scalar IntersectionExampleScenario.node[681].appl 	IntersectionExitTime 	-1
scalar IntersectionExampleScenario.node[681].appl 	NumberOfCollisions 	0
scalar IntersectionExampleScenario.node[681].nic.phy80211p 	busyTime 	0
scalar IntersectionExampleScenario.node[681].nic.mac1609_4 	ReceivedUnicastPackets 	0
scalar IntersectionExampleScenario.node[681].nic.mac1609_4 	ReceivedBroadcasts 	0
scalar IntersectionExampleScenario.node[681].nic.mac1609_4 	SentPackets 	0
scalar IntersectionExampleScenario.node[681].nic.mac1609_4 	SNIRLostPackets 	0
scalar IntersectionExampleScenario.node[681].nic.mac1609_4 	RXTXLostPackets 	0
scalar IntersectionExampleScenario.node[681].nic.mac1609_4 	TotalLostPackets 	0
scalar IntersectionExampleScenario.node[681].nic.mac1609_4 	DroppedPacketsInMac 	0
scalar IntersectionExampleScenario.node[681].nic.mac1609_4 	TooLittleTime 	0
scalar IntersectionExampleScenario.node[681].nic.mac1609_4 	TimesIntoBackoff 	0
scalar IntersectionExampleScenario.node[681].nic.mac1609_4 	SlotsBackoff 	0
scalar IntersectionExampleScenario.node[681].nic.mac1609_4 	NumInternalContention 	0
scalar IntersectionExampleScenario.node[681].nic.mac1609_4 	totalBusyTime 	0
scalar IntersectionExampleScenario.node[681].veinsmobility 	startTime 	1783
scalar IntersectionExampleScenario.node[681].veinsmobility 	totalTime 	17
scalar IntersectionExampleScenario.node[681].veinsmobility 	stopTime 	1800
scalar IntersectionExampleScenario.node[681].veinsmobility 	minSpeed 	5.6500000953674
scalar IntersectionExampleScenario.node[681].veinsmobility 	maxSpeed 	16.27499961853
scalar IntersectionExampleScenario.node[681].veinsmobility 	totalDistance 	219.94501495361
scalar IntersectionExampleScenario.node[681].veinsmobility 	totalCO2Emission 	56.966427439985
scalar IntersectionExampleScenario.node[682].appl 	VehicleRemoved 	0
scalar IntersectionExampleScenario.node[682].appl 	ArrivedAtDest 	0
scalar IntersectionExampleScenario.node[682].appl 	IntersectionEnterTime 	1785.25
scalar IntersectionExampleScenario.node[682].appl 	IntersectionExitTime 	-1
scalar IntersectionExampleScenario.node[682].appl 	NumberOfCollisions 	0
scalar IntersectionExampleScenario.node[682].nic.phy80211p 	busyTime 	0
scalar IntersectionExampleScenario.node[682].nic.mac1609_4 	ReceivedUnicastPackets 	0
scalar IntersectionExampleScenario.node[682].nic.mac1609_4 	ReceivedBroadcasts 	0
scalar IntersectionExampleScenario.node[682].nic.mac1609_4 	SentPackets 	0
scalar IntersectionExampleScenario.node[682].nic.mac1609_4 	SNIRLostPackets 	0
scalar IntersectionExampleScenario.node[682].nic.mac1609_4 	RXTXLostPackets 	0
scalar IntersectionExampleScenario.node[682].nic.mac1609_4 	TotalLostPackets 	0
scalar IntersectionExampleScenario.node[682].nic.mac1609_4 	DroppedPacketsInMac 	0
scalar IntersectionExampleScenario.node[682].nic.mac1609_4 	TooLittleTime 	0
scalar IntersectionExampleScenario.node[682].nic.mac1609_4 	TimesIntoBackoff 	0
scalar IntersectionExampleScenario.node[682].nic.mac1609_4 	SlotsBackoff 	0
scalar IntersectionExampleScenario.node[682].nic.mac1609_4 	NumInternalContention 	0
scalar IntersectionExampleScenario.node[682].nic.mac1609_4 	totalBusyTime 	0
scalar IntersectionExampleScenario.node[682].veinsmobility 	startTime 	1785.25
scalar IntersectionExampleScenario.node[682].veinsmobility 	totalTime 	14.75
scalar IntersectionExampleScenario.node[682].veinsmobility 	stopTime 	1800
scalar IntersectionExampleScenario.node[682].veinsmobility 	minSpeed 	5.6500000953674
scalar IntersectionExampleScenario.node[682].veinsmobility 	maxSpeed 	15.64999961853
scalar IntersectionExampleScenario.node[682].veinsmobility 	totalDistance 	207.53234863281
scalar IntersectionExampleScenario.node[682].veinsmobility 	totalCO2Emission 	56.495111294785
scalar IntersectionExampleScenario.node[683].appl 	VehicleRemoved 	0
scalar IntersectionExampleScenario.node[683].appl 	ArrivedAtDest 	0
scalar IntersectionExampleScenario.node[683].appl 	IntersectionEnterTime 	1791.75
scalar IntersectionExampleScenario.node[683].appl 	IntersectionExitTime 	-1
scalar IntersectionExampleScenario.node[683].appl 	NumberOfCollisions 	0
scalar IntersectionExampleScenario.node[683].nic.phy80211p 	busyTime 	0
scalar IntersectionExampleScenario.node[683].nic.mac1609_4 	ReceivedUnicastPackets 	0
scalar IntersectionExampleScenario.node[683].nic.mac1609_4 	ReceivedBroadcasts 	0
scalar IntersectionExampleScenario.node[683].nic.mac1609_4 	SentPackets 	0
scalar IntersectionExampleScenario.node[683].nic.mac1609_4 	SNIRLostPackets 	0
scalar IntersectionExampleScenario.node[683].nic.mac1609_4 	RXTXLostPackets 	0
scalar IntersectionExampleScenario.node[683].nic.mac1609_4 	TotalLostPackets 	0
scalar IntersectionExampleScenario.node[683].nic.mac1609_4 	DroppedPacketsInMac 	0
scalar IntersectionExampleScenario.node[683].nic.mac1609_4 	TooLittleTime 	0
scalar IntersectionExampleScenario.node[683].nic.mac1609_4 	TimesIntoBackoff 	0
scalar IntersectionExampleScenario.node[683].nic.mac1609_4 	SlotsBackoff 	0
scalar IntersectionExampleScenario.node[683].nic.mac1609_4 	NumInternalContention 	0
scalar IntersectionExampleScenario.node[683].nic.mac1609_4 	totalBusyTime 	0
scalar IntersectionExampleScenario.node[683].veinsmobility 	startTime 	1791.75
scalar IntersectionExampleScenario.node[683].veinsmobility 	totalTime 	8.25
scalar IntersectionExampleScenario.node[683].veinsmobility 	stopTime 	1800
scalar IntersectionExampleScenario.node[683].veinsmobility 	minSpeed 	5.6500000953674
scalar IntersectionExampleScenario.node[683].veinsmobility 	maxSpeed 	15.64999961853
scalar IntersectionExampleScenario.node[683].veinsmobility 	totalDistance 	106.42948150635
scalar IntersectionExampleScenario.node[683].veinsmobility 	totalCO2Emission 	42.304456670589
scalar IntersectionExampleScenario.node[684].appl 	VehicleRemoved 	0
scalar IntersectionExampleScenario.node[684].appl 	ArrivedAtDest 	0
scalar IntersectionExampleScenario.node[684].appl 	IntersectionEnterTime 	1794.5
scalar IntersectionExampleScenario.node[684].appl 	IntersectionExitTime 	-1
scalar IntersectionExampleScenario.node[684].appl 	NumberOfCollisions 	0
scalar IntersectionExampleScenario.node[684].nic.phy80211p 	busyTime 	0
scalar IntersectionExampleScenario.node[684].nic.mac1609_4 	ReceivedUnicastPackets 	0
scalar IntersectionExampleScenario.node[684].nic.mac1609_4 	ReceivedBroadcasts 	0
scalar IntersectionExampleScenario.node[684].nic.mac1609_4 	SentPackets 	0
scalar IntersectionExampleScenario.node[684].nic.mac1609_4 	SNIRLostPackets 	0
scalar IntersectionExampleScenario.node[684].nic.mac1609_4 	RXTXLostPackets 	0
scalar IntersectionExampleScenario.node[684].nic.mac1609_4 	TotalLostPackets 	0
scalar IntersectionExampleScenario.node[684].nic.mac1609_4 	DroppedPacketsInMac 	0
scalar IntersectionExampleScenario.node[684].nic.mac1609_4 	TooLittleTime 	0
scalar IntersectionExampleScenario.node[684].nic.mac1609_4 	TimesIntoBackoff 	0
scalar IntersectionExampleScenario.node[684].nic.mac1609_4 	SlotsBackoff 	0
scalar IntersectionExampleScenario.node[684].nic.mac1609_4 	NumInternalContention 	0
scalar IntersectionExampleScenario.node[684].nic.mac1609_4 	totalBusyTime 	0
scalar IntersectionExampleScenario.node[684].veinsmobility 	startTime 	1794.5
scalar IntersectionExampleScenario.node[684].veinsmobility 	totalTime 	5.5
scalar IntersectionExampleScenario.node[684].veinsmobility 	stopTime 	1800
scalar IntersectionExampleScenario.node[684].veinsmobility 	minSpeed 	5.6500000953674
scalar IntersectionExampleScenario.node[684].veinsmobility 	maxSpeed 	15.02499961853
scalar IntersectionExampleScenario.node[684].veinsmobility 	totalDistance 	62.241577148438
scalar IntersectionExampleScenario.node[684].veinsmobility 	totalCO2Emission 	32.610083239394
scalar IntersectionExampleScenario.node[685].appl 	VehicleRemoved 	0
scalar IntersectionExampleScenario.node[685].appl 	ArrivedAtDest 	0
scalar IntersectionExampleScenario.node[685].appl 	IntersectionEnterTime 	1797
scalar IntersectionExampleScenario.node[685].appl 	IntersectionExitTime 	-1
scalar IntersectionExampleScenario.node[685].appl 	NumberOfCollisions 	0
scalar IntersectionExampleScenario.node[685].nic.phy80211p 	busyTime 	0
scalar IntersectionExampleScenario.node[685].nic.mac1609_4 	ReceivedUnicastPackets 	0
scalar IntersectionExampleScenario.node[685].nic.mac1609_4 	ReceivedBroadcasts 	0
scalar IntersectionExampleScenario.node[685].nic.mac1609_4 	SentPackets 	0
scalar IntersectionExampleScenario.node[685].nic.mac1609_4 	SNIRLostPackets 	0
scalar IntersectionExampleScenario.node[685].nic.mac1609_4 	RXTXLostPackets 	0
scalar IntersectionExampleScenario.node[685].nic.mac1609_4 	TotalLostPackets 	0
scalar IntersectionExampleScenario.node[685].nic.mac1609_4 	DroppedPacketsInMac 	0
scalar IntersectionExampleScenario.node[685].nic.mac1609_4 	TooLittleTime 	0
scalar IntersectionExampleScenario.node[685].nic.mac1609_4 	TimesIntoBackoff 	0
scalar IntersectionExampleScenario.node[685].nic.mac1609_4 	SlotsBackoff 	0
scalar IntersectionExampleScenario.node[685].nic.mac1609_4 	NumInternalContention 	0
scalar IntersectionExampleScenario.node[685].nic.mac1609_4 	totalBusyTime 	0
scalar IntersectionExampleScenario.node[685].veinsmobility 	startTime 	1797
scalar IntersectionExampleScenario.node[685].veinsmobility 	totalTime 	3
scalar IntersectionExampleScenario.node[685].veinsmobility 	stopTime 	1800
scalar IntersectionExampleScenario.node[685].veinsmobility 	minSpeed 	5.6500000953674
scalar IntersectionExampleScenario.node[685].veinsmobility 	maxSpeed 	12.52499961853
scalar IntersectionExampleScenario.node[685].veinsmobility 	totalDistance 	26.324989318848
scalar IntersectionExampleScenario.node[685].veinsmobility 	totalCO2Emission 	20.113115050741
scalar IntersectionExampleScenario.node[686].appl 	VehicleRemoved 	0
scalar IntersectionExampleScenario.node[686].appl 	ArrivedAtDest 	0
scalar IntersectionExampleScenario.node[686].appl 	IntersectionEnterTime 	1797.25
scalar IntersectionExampleScenario.node[686].appl 	IntersectionExitTime 	-1
scalar IntersectionExampleScenario.node[686].appl 	NumberOfCollisions 	0
scalar IntersectionExampleScenario.node[686].nic.phy80211p 	busyTime 	0
scalar IntersectionExampleScenario.node[686].nic.mac1609_4 	ReceivedUnicastPackets 	0
scalar IntersectionExampleScenario.node[686].nic.mac1609_4 	ReceivedBroadcasts 	0
scalar IntersectionExampleScenario.node[686].nic.mac1609_4 	SentPackets 	0
scalar IntersectionExampleScenario.node[686].nic.mac1609_4 	SNIRLostPackets 	0
scalar IntersectionExampleScenario.node[686].nic.mac1609_4 	RXTXLostPackets 	0
scalar IntersectionExampleScenario.node[686].nic.mac1609_4 	TotalLostPackets 	0
scalar IntersectionExampleScenario.node[686].nic.mac1609_4 	DroppedPacketsInMac 	0
scalar IntersectionExampleScenario.node[686].nic.mac1609_4 	TooLittleTime 	0
scalar IntersectionExampleScenario.node[686].nic.mac1609_4 	TimesIntoBackoff 	0
scalar IntersectionExampleScenario.node[686].nic.mac1609_4 	SlotsBackoff 	0
scalar IntersectionExampleScenario.node[686].nic.mac1609_4 	NumInternalContention 	0
scalar IntersectionExampleScenario.node[686].nic.mac1609_4 	totalBusyTime 	0
scalar IntersectionExampleScenario.node[686].veinsmobility 	startTime 	1797.25
scalar IntersectionExampleScenario.node[686].veinsmobility 	totalTime 	2.75
scalar IntersectionExampleScenario.node[686].veinsmobility 	stopTime 	1800
scalar IntersectionExampleScenario.node[686].veinsmobility 	minSpeed 	5.6500000953674
scalar IntersectionExampleScenario.node[686].veinsmobility 	maxSpeed 	11.89999961853
scalar IntersectionExampleScenario.node[686].veinsmobility 	totalDistance 	23.271911621094
scalar IntersectionExampleScenario.node[686].veinsmobility 	totalCO2Emission 	17.752607434053
scalar IntersectionExampleScenario.node[687].appl 	VehicleRemoved 	0
scalar IntersectionExampleScenario.node[687].appl 	ArrivedAtDest 	0
scalar IntersectionExampleScenario.node[687].appl 	IntersectionEnterTime 	1799.5
scalar IntersectionExampleScenario.node[687].appl 	IntersectionExitTime 	-1
scalar IntersectionExampleScenario.node[687].appl 	NumberOfCollisions 	0
scalar IntersectionExampleScenario.node[687].nic.phy80211p 	busyTime 	0
scalar IntersectionExampleScenario.node[687].nic.mac1609_4 	ReceivedUnicastPackets 	0
scalar IntersectionExampleScenario.node[687].nic.mac1609_4 	ReceivedBroadcasts 	0
scalar IntersectionExampleScenario.node[687].nic.mac1609_4 	SentPackets 	0
scalar IntersectionExampleScenario.node[687].nic.mac1609_4 	SNIRLostPackets 	0
scalar IntersectionExampleScenario.node[687].nic.mac1609_4 	RXTXLostPackets 	0
scalar IntersectionExampleScenario.node[687].nic.mac1609_4 	TotalLostPackets 	0
scalar IntersectionExampleScenario.node[687].nic.mac1609_4 	DroppedPacketsInMac 	0
scalar IntersectionExampleScenario.node[687].nic.mac1609_4 	TooLittleTime 	0
scalar IntersectionExampleScenario.node[687].nic.mac1609_4 	TimesIntoBackoff 	0
scalar IntersectionExampleScenario.node[687].nic.mac1609_4 	SlotsBackoff 	0
scalar IntersectionExampleScenario.node[687].nic.mac1609_4 	NumInternalContention 	0
scalar IntersectionExampleScenario.node[687].nic.mac1609_4 	totalBusyTime 	0
scalar IntersectionExampleScenario.node[687].veinsmobility 	startTime 	1799.5
scalar IntersectionExampleScenario.node[687].veinsmobility 	totalTime 	0.5
scalar IntersectionExampleScenario.node[687].veinsmobility 	stopTime 	1800
scalar IntersectionExampleScenario.node[687].veinsmobility 	minSpeed 	5.6500000953674
scalar IntersectionExampleScenario.node[687].veinsmobility 	maxSpeed 	6.2750000953674
scalar IntersectionExampleScenario.node[687].veinsmobility 	totalDistance 	2.8250122070312
scalar IntersectionExampleScenario.node[687].veinsmobility 	totalCO2Emission 	1.3040546814646
