file 32881166 1591392818                                        
version 2
run nodebug-29-20200605-17:27:58-20012
attr configname nodebug
attr datetime 20200605-17:27:58
attr experiment nodebug
attr inifile omnetpp.ini
attr iterationvars ""
attr iterationvars2 $repetition=29
attr measurement ""
attr network "\"org.car2x.veins.modules.application.ExtTraCIScenarioManagerLaunchd.IntersectionExampleScenario\""
attr processid 20012
attr repetition 29
attr replication #29
attr resultdir results
attr runnumber 29
attr seedset 29
param **.coreDebug false
param **.debug false
param *.**.nic.mac1609_4.bitrate 18Mbps
param *.**.nic.mac1609_4.txPower 20mW
param *.**.nic.mac1609_4.useServiceChannel false
param *.**.nic.phy80211p.analogueModels "xmldoc(\"config.xml\")"
param *.**.nic.phy80211p.decider "xmldoc(\"config.xml\")"
param *.**.nic.phy80211p.sensitivity -89dBm
param *.**.nic.phy80211p.thermalNoise -110dBm
param *.**.nic.phy80211p.usePropagationDelay true
param *.**.nic.phy80211p.useThermalNoise true
param *.annotations.draw false
param *.connectionManager.alpha 2.0
param *.connectionManager.carrierFrequency "5.890e9 Hz"
param *.connectionManager.pMax 20mW
param *.connectionManager.sat -89dBm
param *.connectionManager.sendDirect true
param *.manager.autoShutdown true
param *.manager.host "\"localhost\""
param *.manager.launchConfig "xmldoc(\"paramics.launchd.xml\")"
param *.manager.margin 25
param *.manager.moduleDisplayString "\"\""
param *.manager.moduleName "\"node\""
param *.manager.moduleType "\"org.car2x.veins.nodes.Car\""
param *.manager.port 9999
param *.manager.updateInterval 250ms
param *.node[*0].veinsmobility.accidentCount 0
param *.node[*0].veinsmobility.accidentDuration 30s
param *.node[*0].veinsmobility.accidentStart 75s
param *.node[*].appl.LiderSelectZoneRadio 55.0
param *.node[*].appl.ShareDataZoneRadio 110.0
param *.node[*].appl.TiempoSemaforo 30.0
param *.node[*].appl.beaconInterval 1s
param *.node[*].appl.beaconPriority 3
param *.node[*].appl.dataOnSch false
param *.node[*].appl.dataPriority 2
param *.node[*].appl.debug false
param *.node[*].appl.headerLength "256 bit"
param *.node[*].appl.maxOffset 0.005s
param *.node[*].appl.sendBeacons false
param *.node[*].appl.sendData true
param *.node[*].applType "\"Dummy\""
param *.node[*].mobilityType "\"TraCIMobility\""
param *.node[*].mobilityType.debug true
param *.node[*].veinsmobility.x 0
param *.node[*].veinsmobility.y 0
param *.node[*].veinsmobility.z 1.895
param *.node[*].veinsmobilityType "\"org.car2x.veins.modules.mobility.traci.TraCIMobility\""
param *.node[*].veinsmobilityType.debug true
param *.playgroundSizeX 8500m
param *.playgroundSizeY 8500m
param *.playgroundSizeZ 50m
param *.world.use2D false
param *.world.useTorus false

vector 41421  IntersectionExampleScenario.manager  vehiclesinsim  ETV
attr type  int
vector 41422  IntersectionExampleScenario.manager  realtime  ETV
attr type  int
attr unit  s
vector 41425  IntersectionExampleScenario.node[0].veinsmobility  posx  ETV
vector 41426  IntersectionExampleScenario.node[0].veinsmobility  posy  ETV
vector 41427  IntersectionExampleScenario.node[0].veinsmobility  speed  ETV
vector 41428  IntersectionExampleScenario.node[0].veinsmobility  acceleration  ETV
vector 41429  IntersectionExampleScenario.node[0].veinsmobility  co2emission  ETV
vector 41432  IntersectionExampleScenario.node[1].veinsmobility  posx  ETV
vector 41433  IntersectionExampleScenario.node[1].veinsmobility  posy  ETV
vector 41434  IntersectionExampleScenario.node[1].veinsmobility  speed  ETV
vector 41435  IntersectionExampleScenario.node[1].veinsmobility  acceleration  ETV
vector 41436  IntersectionExampleScenario.node[1].veinsmobility  co2emission  ETV
vector 41439  IntersectionExampleScenario.node[2].veinsmobility  posx  ETV
vector 41440  IntersectionExampleScenario.node[2].veinsmobility  posy  ETV
vector 41446  IntersectionExampleScenario.node[3].veinsmobility  posx  ETV
vector 41447  IntersectionExampleScenario.node[3].veinsmobility  posy  ETV
vector 41441  IntersectionExampleScenario.node[2].veinsmobility  speed  ETV
vector 41442  IntersectionExampleScenario.node[2].veinsmobility  acceleration  ETV
vector 41443  IntersectionExampleScenario.node[2].veinsmobility  co2emission  ETV
vector 41448  IntersectionExampleScenario.node[3].veinsmobility  speed  ETV
vector 41449  IntersectionExampleScenario.node[3].veinsmobility  acceleration  ETV
vector 41450  IntersectionExampleScenario.node[3].veinsmobility  co2emission  ETV
vector 41453  IntersectionExampleScenario.node[4].veinsmobility  posx  ETV
vector 41454  IntersectionExampleScenario.node[4].veinsmobility  posy  ETV
vector 41455  IntersectionExampleScenario.node[4].veinsmobility  speed  ETV
vector 41456  IntersectionExampleScenario.node[4].veinsmobility  acceleration  ETV
vector 41457  IntersectionExampleScenario.node[4].veinsmobility  co2emission  ETV
vector 41460  IntersectionExampleScenario.node[5].veinsmobility  posx  ETV
vector 41461  IntersectionExampleScenario.node[5].veinsmobility  posy  ETV
vector 41462  IntersectionExampleScenario.node[5].veinsmobility  speed  ETV
vector 41463  IntersectionExampleScenario.node[5].veinsmobility  acceleration  ETV
vector 41464  IntersectionExampleScenario.node[5].veinsmobility  co2emission  ETV
vector 41467  IntersectionExampleScenario.node[6].veinsmobility  posx  ETV
vector 41468  IntersectionExampleScenario.node[6].veinsmobility  posy  ETV
vector 41469  IntersectionExampleScenario.node[6].veinsmobility  speed  ETV
vector 41470  IntersectionExampleScenario.node[6].veinsmobility  acceleration  ETV
vector 41471  IntersectionExampleScenario.node[6].veinsmobility  co2emission  ETV
vector 41474  IntersectionExampleScenario.node[7].veinsmobility  posx  ETV
vector 41475  IntersectionExampleScenario.node[7].veinsmobility  posy  ETV
vector 41476  IntersectionExampleScenario.node[7].veinsmobility  speed  ETV
vector 41477  IntersectionExampleScenario.node[7].veinsmobility  acceleration  ETV
vector 41478  IntersectionExampleScenario.node[7].veinsmobility  co2emission  ETV
vector 41481  IntersectionExampleScenario.node[8].veinsmobility  posx  ETV
vector 41482  IntersectionExampleScenario.node[8].veinsmobility  posy  ETV
vector 41488  IntersectionExampleScenario.node[9].veinsmobility  posx  ETV
vector 41489  IntersectionExampleScenario.node[9].veinsmobility  posy  ETV
vector 41483  IntersectionExampleScenario.node[8].veinsmobility  speed  ETV
vector 41484  IntersectionExampleScenario.node[8].veinsmobility  acceleration  ETV
vector 41485  IntersectionExampleScenario.node[8].veinsmobility  co2emission  ETV
vector 41490  IntersectionExampleScenario.node[9].veinsmobility  speed  ETV
vector 41491  IntersectionExampleScenario.node[9].veinsmobility  acceleration  ETV
vector 41492  IntersectionExampleScenario.node[9].veinsmobility  co2emission  ETV
vector 41495  IntersectionExampleScenario.node[10].veinsmobility  posx  ETV
vector 41496  IntersectionExampleScenario.node[10].veinsmobility  posy  ETV
vector 41497  IntersectionExampleScenario.node[10].veinsmobility  speed  ETV
vector 41498  IntersectionExampleScenario.node[10].veinsmobility  acceleration  ETV
vector 41499  IntersectionExampleScenario.node[10].veinsmobility  co2emission  ETV
vector 41502  IntersectionExampleScenario.node[11].veinsmobility  posx  ETV
vector 41503  IntersectionExampleScenario.node[11].veinsmobility  posy  ETV
vector 41504  IntersectionExampleScenario.node[11].veinsmobility  speed  ETV
vector 41505  IntersectionExampleScenario.node[11].veinsmobility  acceleration  ETV
vector 41506  IntersectionExampleScenario.node[11].veinsmobility  co2emission  ETV
vector 41509  IntersectionExampleScenario.node[12].veinsmobility  posx  ETV
vector 41510  IntersectionExampleScenario.node[12].veinsmobility  posy  ETV
vector 41511  IntersectionExampleScenario.node[12].veinsmobility  speed  ETV
vector 41512  IntersectionExampleScenario.node[12].veinsmobility  acceleration  ETV
vector 41513  IntersectionExampleScenario.node[12].veinsmobility  co2emission  ETV
vector 41516  IntersectionExampleScenario.node[13].veinsmobility  posx  ETV
vector 41517  IntersectionExampleScenario.node[13].veinsmobility  posy  ETV
vector 41518  IntersectionExampleScenario.node[13].veinsmobility  speed  ETV
vector 41519  IntersectionExampleScenario.node[13].veinsmobility  acceleration  ETV
vector 41520  IntersectionExampleScenario.node[13].veinsmobility  co2emission  ETV
41429	8500 4803 11 1791 1.5 39.75 154 0.973 11.648172402475 469.21496155858 2457.4558325946
41428	13303 4372 11 1791 1.5 39.75 154 -3.0418586730957 2.5 38.171613693237 190.18313269967
41427	17675 4726 8 1791 1.25 39.75 155 5.6500000953674 15.64999961853 2212.8071784973 32216.6123788
41426	22401 4950 5 1791 1 39.75 156 184.17810058594 732.17820739746 69909.006652832 35451839.889797
41425	27351 4983 5 1791 1 39.75 156 486.85000610352 486.85000610352 75948.600952148 36975576.837107
41436	32334 4712 24 1791 2.25 39.75 151 0.973 11.990504229548 479.97191342524 2613.7218177773
41435	37046 4198 24 1791 2.25 39.75 151 -3.2447547912598 2.5 39.869146347046 201.41922718971
41434	41244 4612 19 1791 2 39.75 152 5.6500000953674 16.125 2212.2037334442 32921.068151754
41433	45856 4859 14 1791 1.75 39.75 153 238.06097412109 785.82187652588 79972.657585144 45844433.356388
41432	50715 4896 14 1791 1.75 39.75 153 483.14999389648 483.14999389648 73921.949066162 35715389.240132
vector 41523  IntersectionExampleScenario.node[14].veinsmobility  posx  ETV
vector 41524  IntersectionExampleScenario.node[14].veinsmobility  posy  ETV
vector 41525  IntersectionExampleScenario.node[14].veinsmobility  speed  ETV
vector 41526  IntersectionExampleScenario.node[14].veinsmobility  acceleration  ETV
vector 41527  IntersectionExampleScenario.node[14].veinsmobility  co2emission  ETV
vector 41530  IntersectionExampleScenario.node[15].veinsmobility  posx  ETV
vector 41531  IntersectionExampleScenario.node[15].veinsmobility  posy  ETV
vector 41532  IntersectionExampleScenario.node[15].veinsmobility  speed  ETV
vector 41533  IntersectionExampleScenario.node[15].veinsmobility  acceleration  ETV
vector 41534  IntersectionExampleScenario.node[15].veinsmobility  co2emission  ETV
vector 41537  IntersectionExampleScenario.node[16].veinsmobility  posx  ETV
vector 41538  IntersectionExampleScenario.node[16].veinsmobility  posy  ETV
vector 41539  IntersectionExampleScenario.node[16].veinsmobility  speed  ETV
vector 41540  IntersectionExampleScenario.node[16].veinsmobility  acceleration  ETV
vector 41541  IntersectionExampleScenario.node[16].veinsmobility  co2emission  ETV
vector 41544  IntersectionExampleScenario.node[17].veinsmobility  posx  ETV
vector 41545  IntersectionExampleScenario.node[17].veinsmobility  posy  ETV
41443	56968 4884 190 2548 10.25 48.25 153 0.97223939240464 11.648172402475 471.80125096764 2469.8143218926
41442	61852 4406 190 2548 10.25 48.25 153 -3.5467834472656 2.5 38.680875778198 197.15959754627
41441	66258 4782 181 2548 10 48.25 154 5.6500000953674 15.64999961853 2210.3583860397 32381.156427409
41440	71040 5011 174 2548 9.75 48.25 155 184.17810058594 731.58805847168 69392.785308838 35155219.938853
41439	76051 5043 174 2548 9.75 48.25 155 486.85000610352 486.85000610352 75461.750946045 36738553.908664
vector 41546  IntersectionExampleScenario.node[17].veinsmobility  speed  ETV
vector 41547  IntersectionExampleScenario.node[17].veinsmobility  acceleration  ETV
vector 41548  IntersectionExampleScenario.node[17].veinsmobility  co2emission  ETV
41450	81341 4987 199 2673 10.5 49.5 157 0.973 11.54047740176 464.515727801 2331.5343583805
41449	86328 4475 199 2673 10.5 49.5 157 -3.6199722290039 2.5 36.98334312439 185.99759120812
41448	90803 4894 190 2673 10.25 49.5 158 5.6500000953674 15.5 2220.1634054184 31769.100361968
41447	95697 5169 181 2673 10 49.5 159 235.88525390625 785.82187652588 82773.169471741 47318648.965285
41446	100866 5176 181 2673 10 49.5 159 483.14999389648 483.14999389648 76820.849029541 37115992.739745
vector 41551  IntersectionExampleScenario.node[18].veinsmobility  posx  ETV
vector 41552  IntersectionExampleScenario.node[18].veinsmobility  posy  ETV
vector 41553  IntersectionExampleScenario.node[18].veinsmobility  speed  ETV
vector 41554  IntersectionExampleScenario.node[18].veinsmobility  acceleration  ETV
vector 41555  IntersectionExampleScenario.node[18].veinsmobility  co2emission  ETV
vector 41558  IntersectionExampleScenario.node[19].veinsmobility  posx  ETV
vector 41559  IntersectionExampleScenario.node[19].veinsmobility  posy  ETV
vector 41560  IntersectionExampleScenario.node[19].veinsmobility  speed  ETV
vector 41561  IntersectionExampleScenario.node[19].veinsmobility  acceleration  ETV
vector 41562  IntersectionExampleScenario.node[19].veinsmobility  co2emission  ETV
41457	106844 5110 311 3126 13.5 53.75 162 0.97223939240464 11.810082123732 515.14999120899 2869.306021162
41456	111954 4743 311 3126 13.5 53.75 162 -3.363431930542 2.5 38.680875778198 281.84652993816
41455	116697 5000 300 3126 13.25 53.75 163 5.6500000953674 15.875 2234.2652993202 31999.66888484
41454	121697 5328 289 3126 13 53.75 164 172.9296875 483.32711791992 64485.725128174 27266397.319594
41453	127025 5348 289 3126 13 53.75 164 486.85000610352 734.43090820312 88059.117324829 48224284.332152
vector 41565  IntersectionExampleScenario.node[20].veinsmobility  posx  ETV
vector 41566  IntersectionExampleScenario.node[20].veinsmobility  posy  ETV
vector 41567  IntersectionExampleScenario.node[20].veinsmobility  speed  ETV
vector 41568  IntersectionExampleScenario.node[20].veinsmobility  acceleration  ETV
vector 41569  IntersectionExampleScenario.node[20].veinsmobility  co2emission  ETV
vector 41572  IntersectionExampleScenario.node[21].veinsmobility  posx  ETV
vector 41573  IntersectionExampleScenario.node[21].veinsmobility  posy  ETV
vector 41574  IntersectionExampleScenario.node[21].veinsmobility  speed  ETV
vector 41575  IntersectionExampleScenario.node[21].veinsmobility  acceleration  ETV
vector 41576  IntersectionExampleScenario.node[21].veinsmobility  co2emission  ETV
vector 41579  IntersectionExampleScenario.node[22].veinsmobility  posx  ETV
vector 41580  IntersectionExampleScenario.node[22].veinsmobility  posy  ETV
vector 41581  IntersectionExampleScenario.node[22].veinsmobility  speed  ETV
vector 41582  IntersectionExampleScenario.node[22].veinsmobility  acceleration  ETV
vector 41583  IntersectionExampleScenario.node[22].veinsmobility  co2emission  ETV
41471	133576 5210 826 4422 23.75 64.5 164 0.973 11.36141391502 493.09962632924 2581.4212800182
41470	138786 4822 826 4422 23.75 64.5 164 -3.5849685668945 2.5 35.964826583862 268.87659629982
41469	143608 5106 811 4422 23.5 64.5 165 5.6500000953674 15.25 2185.0118789673 30091.539931081
41468	148714 5455 796 4422 23.25 64.5 166 486.78659057617 785.82187652588 94985.708610535 56128584.495314
41467	154169 5448 796 4422 23.25 64.5 166 236.29168701172 483.14999389648 71671.174255371 31907489.533038
41506	159617 4669 1528 5361 36.25 72.5 146 0.96997852711604 12.553400930962 500.07528890332 3042.5637318576
41505	164286 4394 1528 5361 36.25 72.5 146 -3.3901557922363 2.5 42.585195541382 233.38468607585
41504	168680 4591 1511 5361 36 72.5 147 5.6500000953674 16.89999961853 2210.9946861267 34146.540630747
41503	173271 4884 1494 5361 35.75 72.5 148 483.14999389648 483.14999389648 71506.19909668 34548219.657121
41502	178155 4853 1494 5361 35.75 72.5 148 184.17810058594 731.46829223633 66050.750640869 33386510.255331
vector 41586  IntersectionExampleScenario.node[23].veinsmobility  posx  ETV
vector 41587  IntersectionExampleScenario.node[23].veinsmobility  posy  ETV
vector 41588  IntersectionExampleScenario.node[23].veinsmobility  speed  ETV
vector 41589  IntersectionExampleScenario.node[23].veinsmobility  acceleration  ETV
vector 41590  IntersectionExampleScenario.node[23].veinsmobility  co2emission  ETV
vector 41593  IntersectionExampleScenario.node[24].veinsmobility  posx  ETV
vector 41594  IntersectionExampleScenario.node[24].veinsmobility  posy  ETV
vector 41595  IntersectionExampleScenario.node[24].veinsmobility  speed  ETV
vector 41596  IntersectionExampleScenario.node[24].veinsmobility  acceleration  ETV
vector 41597  IntersectionExampleScenario.node[24].veinsmobility  co2emission  ETV
41513	183810 5462 1583 6154 37 79 169 0.973 11.093806525473 463.61463222352 2010.7254029096
41512	189272 4826 1583 6154 37 79 169 -2.9950523376465 2.5 34.606801986694 149.22259154715
41511	194098 5388 1564 6154 36.75 79 170 5.6500000953674 14.875 2313.7880840302 31963.144908605
41510	199486 5642 1545 6154 36.5 79 171 483.14999389648 483.14999389648 82618.648956299 39917199.738971
41509	205128 5582 1545 6154 36.5 79 171 161.1796875 734.80564880371 74989.177764893 37839642.194062
vector 41600  IntersectionExampleScenario.node[25].veinsmobility  posx  ETV
vector 41601  IntersectionExampleScenario.node[25].veinsmobility  posy  ETV
vector 41602  IntersectionExampleScenario.node[25].veinsmobility  speed  ETV
vector 41603  IntersectionExampleScenario.node[25].veinsmobility  acceleration  ETV
vector 41604  IntersectionExampleScenario.node[25].veinsmobility  co2emission  ETV
vector 41607  IntersectionExampleScenario.node[26].veinsmobility  posx  ETV
vector 41608  IntersectionExampleScenario.node[26].veinsmobility  posy  ETV
vector 41609  IntersectionExampleScenario.node[26].veinsmobility  speed  ETV
vector 41610  IntersectionExampleScenario.node[26].veinsmobility  acceleration  ETV
vector 41611  IntersectionExampleScenario.node[26].veinsmobility  co2emission  ETV
41527	211512 5147 2004 6556 42.5 82 159 0.973 11.093806525473 463.70909761176 2151.826500728
41526	216659 4512 2004 6556 42.5 82 159 -3.1732711791992 2.5 36.98334312439 164.89314672235
41525	221171 5066 1983 6556 42.25 82 160 5.6500000953674 14.945194244385 2245.9558076859 32089.389430841
41524	226237 5311 1962 6556 42 82 161 483.14999389648 483.14999389648 77787.149017334 37582860.57295
41523	231548 5299 1962 6556 42 82 161 176.41687011719 732.93710327148 71633.768157959 36256407.345309
vector 41614  IntersectionExampleScenario.node[27].veinsmobility  posx  ETV
vector 41615  IntersectionExampleScenario.node[27].veinsmobility  posy  ETV
vector 41616  IntersectionExampleScenario.node[27].veinsmobility  speed  ETV
vector 41617  IntersectionExampleScenario.node[27].veinsmobility  acceleration  ETV
vector 41618  IntersectionExampleScenario.node[27].veinsmobility  co2emission  ETV
vector 41621  IntersectionExampleScenario.node[28].veinsmobility  posx  ETV
vector 41622  IntersectionExampleScenario.node[28].veinsmobility  posy  ETV
vector 41623  IntersectionExampleScenario.node[28].veinsmobility  speed  ETV
vector 41624  IntersectionExampleScenario.node[28].veinsmobility  acceleration  ETV
vector 41625  IntersectionExampleScenario.node[28].veinsmobility  co2emission  ETV
vector 41628  IntersectionExampleScenario.node[29].veinsmobility  posx  ETV
vector 41629  IntersectionExampleScenario.node[29].veinsmobility  posy  ETV
vector 41630  IntersectionExampleScenario.node[29].veinsmobility  speed  ETV
vector 41631  IntersectionExampleScenario.node[29].veinsmobility  acceleration  ETV
vector 41632  IntersectionExampleScenario.node[29].veinsmobility  co2emission  ETV
vector 41635  IntersectionExampleScenario.node[30].veinsmobility  posx  ETV
vector 41636  IntersectionExampleScenario.node[30].veinsmobility  posy  ETV
vector 41637  IntersectionExampleScenario.node[30].veinsmobility  speed  ETV
vector 41638  IntersectionExampleScenario.node[30].veinsmobility  acceleration  ETV
vector 41639  IntersectionExampleScenario.node[30].veinsmobility  co2emission  ETV
vector 41642  IntersectionExampleScenario.node[31].veinsmobility  posx  ETV
vector 41643  IntersectionExampleScenario.node[31].veinsmobility  posy  ETV
vector 41644  IntersectionExampleScenario.node[31].veinsmobility  speed  ETV
vector 41645  IntersectionExampleScenario.node[31].veinsmobility  acceleration  ETV
vector 41646  IntersectionExampleScenario.node[31].veinsmobility  co2emission  ETV
41569	238852 4964 3420 8414 56.25 95 156 0.96333723109819 12.099024792222 517.58335664739 3004.9261905147
41568	243816 4627 3420 8414 56.25 95 156 -3.6992034912109 2.5 40.208654403687 295.33699343156
41567	248443 4852 3389 8414 56 95 157 5.6500000953674 16.27499961853 2178.5463562012 31745.48029973
41566	253295 5204 3358 8414 55.75 95 158 238.06005859375 483.14999389648 68452.932861328 30546000.349168
41565	258499 5184 3358 8414 55.75 95 158 184.17810058594 483.15151977539 62779.070281982 26658916.665281
vector 41649  IntersectionExampleScenario.node[32].veinsmobility  posx  ETV
vector 41650  IntersectionExampleScenario.node[32].veinsmobility  posy  ETV
vector 41651  IntersectionExampleScenario.node[32].veinsmobility  speed  ETV
vector 41652  IntersectionExampleScenario.node[32].veinsmobility  acceleration  ETV
vector 41653  IntersectionExampleScenario.node[32].veinsmobility  co2emission  ETV
vector 41656  IntersectionExampleScenario.node[33].veinsmobility  posx  ETV
vector 41657  IntersectionExampleScenario.node[33].veinsmobility  posy  ETV
vector 41658  IntersectionExampleScenario.node[33].veinsmobility  speed  ETV
vector 41663  IntersectionExampleScenario.node[34].veinsmobility  posx  ETV
vector 41664  IntersectionExampleScenario.node[34].veinsmobility  posy  ETV
vector 41659  IntersectionExampleScenario.node[33].veinsmobility  acceleration  ETV
vector 41660  IntersectionExampleScenario.node[33].veinsmobility  co2emission  ETV
vector 41665  IntersectionExampleScenario.node[34].veinsmobility  speed  ETV
vector 41670  IntersectionExampleScenario.node[35].veinsmobility  posx  ETV
vector 41671  IntersectionExampleScenario.node[35].veinsmobility  posy  ETV
vector 41666  IntersectionExampleScenario.node[34].veinsmobility  acceleration  ETV
vector 41667  IntersectionExampleScenario.node[34].veinsmobility  co2emission  ETV
vector 41672  IntersectionExampleScenario.node[35].veinsmobility  speed  ETV
vector 41673  IntersectionExampleScenario.node[35].veinsmobility  acceleration  ETV
vector 41674  IntersectionExampleScenario.node[35].veinsmobility  co2emission  ETV
vector 41677  IntersectionExampleScenario.node[36].veinsmobility  posx  ETV
vector 41678  IntersectionExampleScenario.node[36].veinsmobility  posy  ETV
vector 41679  IntersectionExampleScenario.node[36].veinsmobility  speed  ETV
vector 41680  IntersectionExampleScenario.node[36].veinsmobility  acceleration  ETV
vector 41681  IntersectionExampleScenario.node[36].veinsmobility  co2emission  ETV
41464	265688 9415 458 9716 16.75 103.25 347 0.97223939240464 11.648172402475 716.14384855492 3082.3530259596
41463	275103 8281 458 9716 16.75 103.25 347 -7.1630640029907 4 38.680875778198 471.71258299252
41462	283384 8645 445 9716 16.5 103.25 348 0 15.64999961853 2204.4856579304 31271.545429211
41461	292029 11482 432 9716 16.25 103.25 349 236.21789550781 486.85000610352 161507.69412231 75942050.550331
41460	303511 11477 432 9716 16.25 103.25 349 483.14999389648 785.82187652588 185646.10648346 100988344.28687
41520	314988 7990 1639 9880 37.75 104.25 267 0.973 12.26218747632 651.69634791264 3353.219714957
41519	322978 8504 1639 9880 37.75 104.25 267 -3.8329796791077 2.5 41.227170944214 366.73043287928
41518	331482 8336 1620 9880 37.5 104.25 268 0 16.5 2192.5086768596 29898.601000637
41517	339818 8892 1601 9880 37.25 104.25 269 486.85000610352 735.02333068848 138910.04052734 72807402.759574
41516	348710 8882 1601 9880 37.25 104.25 269 486.85000610352 785.82187652588 147165.50812531 82486265.653484
vector 41684  IntersectionExampleScenario.node[37].veinsmobility  posx  ETV
vector 41685  IntersectionExampleScenario.node[37].veinsmobility  posy  ETV
vector 41686  IntersectionExampleScenario.node[37].veinsmobility  speed  ETV
vector 41687  IntersectionExampleScenario.node[37].veinsmobility  acceleration  ETV
vector 41688  IntersectionExampleScenario.node[37].veinsmobility  co2emission  ETV
vector 41691  IntersectionExampleScenario.node[38].veinsmobility  posx  ETV
vector 41692  IntersectionExampleScenario.node[38].veinsmobility  posy  ETV
vector 41698  IntersectionExampleScenario.node[39].veinsmobility  posx  ETV
vector 41699  IntersectionExampleScenario.node[39].veinsmobility  posy  ETV
vector 41693  IntersectionExampleScenario.node[38].veinsmobility  speed  ETV
vector 41694  IntersectionExampleScenario.node[38].veinsmobility  acceleration  ETV
vector 41695  IntersectionExampleScenario.node[38].veinsmobility  co2emission  ETV
vector 41700  IntersectionExampleScenario.node[39].veinsmobility  speed  ETV
vector 41701  IntersectionExampleScenario.node[39].veinsmobility  acceleration  ETV
vector 41702  IntersectionExampleScenario.node[39].veinsmobility  co2emission  ETV
vector 41705  IntersectionExampleScenario.node[40].veinsmobility  posx  ETV
vector 41706  IntersectionExampleScenario.node[40].veinsmobility  posy  ETV
vector 41707  IntersectionExampleScenario.node[40].veinsmobility  speed  ETV
41541	359027 7566 2280 10533 45.5 108 251 0.973 11.36141391502 596.60353554834 2789.2064816292
41540	366593 7868 2280 10533 45.5 108 251 -3.9819068908691 2.5 36.813589096069 330.30022132478
41539	374461 7995 2255 10533 45.25 108 252 0 15.25 2182.4397680722 27542.769500671
41538	382456 8381 2230 10533 45 108 253 486.85000610352 732.90493774414 131541.59619141 69484424.828634
41537	390837 8380 2230 10533 45 108 253 486.85000610352 785.82187652588 140291.39019012 79738419.593383
vector 41708  IntersectionExampleScenario.node[40].veinsmobility  acceleration  ETV
vector 41709  IntersectionExampleScenario.node[40].veinsmobility  co2emission  ETV
41548	399386 7715 2598 10925 48.75 110 246 0.973 11.200708441096 604.71114847503 2737.3144619296
41547	407101 7602 2598 10925 48.75 110 246 -4.5 2.5000000447035 36.643835067749 478.78129860848
41546	414703 7904 2573 10925 48.5 110 247 0 15.02499961853 2254.8343246598 29627.017951443
41545	422607 8246 2548 10925 48.25 110 248 486.85000610352 486.85000610352 120738.80151367 58781686.253862
41544	430853 8224 2548 10925 48.25 110 248 238.40771484375 797.07032012939 130468.64209747 73096272.495184
41562	439077 7333 3097 11312 53.5 112 235 0.973 11.36141391502 653.2108358375 3235.929320752
41561	446410 7399 3097 11312 53.5 112 235 -4.5818824768066 2.5 42.415441513062 511.81424010373
41560	453809 7503 3068 11312 53.25 112 236 0 16.292974472046 2209.7402346097 30564.974698465
41559	461312 7891 3039 11312 53 112 237 486.85000610352 732.82368469238 123102.63993835 64946364.683513
41558	469203 7870 3039 11312 53 112 237 486.85000610352 792.0633392334 132812.43196106 76354900.219485
vector 41712  IntersectionExampleScenario.node[41].veinsmobility  posx  ETV
vector 41713  IntersectionExampleScenario.node[41].veinsmobility  posy  ETV
vector 41714  IntersectionExampleScenario.node[41].veinsmobility  speed  ETV
vector 41715  IntersectionExampleScenario.node[41].veinsmobility  acceleration  ETV
vector 41716  IntersectionExampleScenario.node[41].veinsmobility  co2emission  ETV
41576	477474 6815 3871 11978 60 115.5 223 0.973 11.200708441096 579.84471748877 2860.3553601736
41575	484289 6846 3871 11978 60 115.5 223 -3.9923448562622 2.5 35.625318527222 366.26029868394
41574	491135 7213 3839 11978 59.75 115.5 224 0 15.02499961853 2210.5853472725 27873.643254033
41573	498348 7524 3808 11978 59.5 115.5 225 236.16973876953 486.85000610352 100715.65814209 46212279.953727
41572	505872 7517 3808 11978 59.5 115.5 225 483.13906860352 785.82187652588 126728.10263824 73253129.239938
41597	513389 5381 6056 12684 78.25 119.25 165 0.973 11.00486315618 462.88171485608 2243.6414628042
41596	518770 5049 6056 12684 78.25 119.25 165 -3.8582534790039 2.5 34.097539901733 202.12049542994
41595	523819 5322 6023 12684 78 119.25 166 5.6500000953674 14.75 2198.122262001 29749.716549102
41594	529141 5640 5990 12684 77.75 119.25 167 238.0087890625 486.85000610352 72391.670654297 32386015.535443
41593	534781 5641 5990 12684 77.75 119.25 167 482.97528076172 785.82187652588 95495.465301514 56444945.839788
vector 41719  IntersectionExampleScenario.node[42].veinsmobility  posx  ETV
vector 41720  IntersectionExampleScenario.node[42].veinsmobility  posy  ETV
vector 41721  IntersectionExampleScenario.node[42].veinsmobility  speed  ETV
vector 41722  IntersectionExampleScenario.node[42].veinsmobility  acceleration  ETV
vector 41723  IntersectionExampleScenario.node[42].veinsmobility  co2emission  ETV
41625	540823 5330 7478 14274 88.5 127.75 158 0.973 11.200708441096 458.21083736787 2208.253032665
41624	546153 4820 7478 14274 88.5 127.75 158 -3.2722854614258 2.5 36.304327011108 174.96345292058
41623	550973 5232 7443 14274 88.25 127.75 159 5.6500000953674 15.02499961853 2215.7802724838 31407.449807846
41622	556205 5484 7407 14274 88 127.75 160 486.85000610352 486.85000610352 77896.000976562 37923668.550879
41621	561689 5469 7407 14274 88 127.75 160 236.87274169922 785.82187652588 83322.251441956 47631294.12294
vector 41726  IntersectionExampleScenario.node[43].veinsmobility  posx  ETV
vector 41727  IntersectionExampleScenario.node[43].veinsmobility  posy  ETV
vector 41728  IntersectionExampleScenario.node[43].veinsmobility  speed  ETV
vector 41729  IntersectionExampleScenario.node[43].veinsmobility  acceleration  ETV
vector 41730  IntersectionExampleScenario.node[43].veinsmobility  co2emission  ETV
41639	567559 5319 8047 14960 92.5 131.5 157 0.973 11.200708441096 467.25415026717 2252.8326941824
41638	572878 4557 8047 14960 92.5 131.5 157 -3.3647155761719 2.5 37.492597579956 178.01573493175
41637	577435 5230 8010 14960 92.25 131.5 158 5.6500000953674 15.091378211975 2233.4211673737 32161.953470365
41636	582665 5480 7973 14960 92 131.5 159 486.85000610352 486.85000610352 77409.150970459 37686645.622436
41635	588145 5459 7973 14960 92 131.5 159 238.70178222656 792.02188110352 83496.350196838 48127950.048844
vector 41733  IntersectionExampleScenario.node[44].veinsmobility  posx  ETV
vector 41734  IntersectionExampleScenario.node[44].veinsmobility  posy  ETV
vector 41735  IntersectionExampleScenario.node[44].veinsmobility  speed  ETV
vector 41736  IntersectionExampleScenario.node[44].veinsmobility  acceleration  ETV
vector 41737  IntersectionExampleScenario.node[44].veinsmobility  co2emission  ETV
vector 41740  IntersectionExampleScenario.node[45].veinsmobility  posx  ETV
vector 41741  IntersectionExampleScenario.node[45].veinsmobility  posy  ETV
vector 41742  IntersectionExampleScenario.node[45].veinsmobility  speed  ETV
vector 41743  IntersectionExampleScenario.node[45].veinsmobility  acceleration  ETV
vector 41744  IntersectionExampleScenario.node[45].veinsmobility  co2emission  ETV
41660	594406 5265 8971 15847 98.75 137 154 0.973 11.54047740176 471.83562748277 2377.3581075083
41659	599671 4694 8971 15847 98.75 137 154 -3.2830047607422 2.5 38.511121749878 186.61620868993
41658	604365 5158 8933 15847 98.5 137 155 5.6500000953674 15.5 2220.0275707245 32438.87159056
41657	609523 5426 8894 15847 98.25 137 156 486.85000610352 486.85000610352 75948.600952148 36975576.837107
41656	614949 5405 8894 15847 98.25 137 156 235.9599609375 785.82187652588 81308.733421326 46531376.378986
vector 41747  IntersectionExampleScenario.node[46].veinsmobility  posx  ETV
vector 41748  IntersectionExampleScenario.node[46].veinsmobility  posy  ETV
vector 41749  IntersectionExampleScenario.node[46].veinsmobility  speed  ETV
vector 41750  IntersectionExampleScenario.node[46].veinsmobility  acceleration  ETV
vector 41751  IntersectionExampleScenario.node[46].veinsmobility  co2emission  ETV
vector 41754  IntersectionExampleScenario.node[47].veinsmobility  posx  ETV
vector 41755  IntersectionExampleScenario.node[47].veinsmobility  posy  ETV
vector 41756  IntersectionExampleScenario.node[47].veinsmobility  speed  ETV
vector 41757  IntersectionExampleScenario.node[47].veinsmobility  acceleration  ETV
vector 41758  IntersectionExampleScenario.node[47].veinsmobility  co2emission  ETV
41478	621156 12731 1001 16948 27.5 145.5 473 0.973 11.36141391502 828.48626042801 3048.3542520282
41477	633887 10883 1001 16948 27.5 145.5 473 -20.762233734131 4 37.32285118103 827.03872610361
41476	644770 11359 988 16948 27.25 145.5 474 0 15.25 2179.7607450485 30470.759893318
41475	656129 15987 975 16948 27 145.5 475 184.17810058594 483.36395263672 211913.0300293 96887776.580229
41474	672116 15954 975 16948 27 145.5 475 486.85000610352 733.68673706055 239604.57719421 122087816.66857
41485	688070 12453 1150 16948 30.25 145.5 462 0.973 11.450879080643 818.84606591013 3086.4314880354
41484	700523 11065 1150 16948 30.25 145.5 462 -7.0671424865723 4 37.32285118103 471.16694374327
41483	711588 11263 1133 16948 30 145.5 463 0 15.375 2213.4868164062 30984.386119764
41482	722851 15636 1118 16948 29.75 145.5 464 236.18798828125 785.82187652588 234838.63884735 123114022.95681
41481	738487 15658 1118 16948 29.75 145.5 464 483.14999389648 483.14999389648 224181.59716797 108313337.30341
41492	754145 12632 1167 17083 30.5 146.75 466 0.93901247241977 11.54047740176 871.72331185989 3358.924750224
41491	766777 11262 1167 17083 30.5 146.75 466 -4.5 2.5 42.656965255737 502.37980133664
41490	778039 11574 1150 17083 30.25 146.75 467 0 16.455142974854 2318.3958696425 34070.033226361
41489	789613 15781 1133 17083 30 146.75 468 235.59576416016 810.23281097412 241277.48565674 129118865.05572
41488	805394 15800 1133 17083 30 146.75 468 483.14999389648 483.14999389648 226114.19714355 109247072.96982
vector 41761  IntersectionExampleScenario.node[48].veinsmobility  posx  ETV
vector 41762  IntersectionExampleScenario.node[48].veinsmobility  posy  ETV
41534	821348 11828 2092 17137 43.5 147.25 416 0.973 12.099024792222 786.80664611743 3245.849440203
41533	833176 11526 2092 17137 43.5 147.25 416 -3.7609324455261 2.5 40.038900375366 340.75111419052
41532	844702 11731 2069 17137 43.25 147.25 417 0 16.27499961853 2178.9579850249 29223.938253649
41531	856433 14122 2046 17137 43 147.25 418 184.17810058594 483.17681884766 183021.17572021 82293484.978531
41530	870555 14149 2046 17137 43 147.25 418 486.85000610352 731.58528137207 211396.76182556 108042342.82341
vector 41763  IntersectionExampleScenario.node[48].veinsmobility  speed  ETV
vector 41764  IntersectionExampleScenario.node[48].veinsmobility  acceleration  ETV
vector 41765  IntersectionExampleScenario.node[48].veinsmobility  co2emission  ETV
41499	884951 12912 1419 17356 34.5 149.25 460 0.973 12.099024792222 849.75534132724 3491.6990959853
41498	897863 12347 1419 17356 34.5 149.25 460 -4.5 2.5 40.887662887573 421.83622010037
41497	910210 12330 1404 17356 34.25 149.25 461 0 16.27499961853 2299.074867934 33031.027283046
41496	922540 15594 1389 17356 34 149.25 462 235.77172851562 805.46678924561 239467.50232697 128642941.76782
41495	938134 15621 1389 17356 34 149.25 462 483.14999389648 483.14999389648 223215.29718018 107846469.4702
vector 41768  IntersectionExampleScenario.node[49].veinsmobility  posx  ETV
vector 41769  IntersectionExampleScenario.node[49].veinsmobility  posy  ETV
vector 41770  IntersectionExampleScenario.node[49].veinsmobility  speed  ETV
41555	953987 11781 2877 17598 51.5 151.5 401 0.973 10.916047529558 725.20673027814 2648.709388493
41554	965768 11844 2877 17598 51.5 151.5 401 -3.9844927787781 2.5 34.097539901733 302.70541940527
41553	977612 11788 2850 17598 51.25 151.5 402 0 14.625 2185.3188383058 26777.476285083
41552	989400 13639 2823 17598 51 151.5 403 184.17810058594 483.14999389648 173794.24655151 77111156.926146
41551	1003039 13671 2823 17598 51 151.5 403 486.85000610352 733.62054443359 204991.72483826 105525421.66032
vector 41771  IntersectionExampleScenario.node[49].veinsmobility  acceleration  ETV
vector 41772  IntersectionExampleScenario.node[49].veinsmobility  co2emission  ETV
41590	1016879 9422 5742 17652 75.75 152 306 0.973 11.990504229548 679.79009783566 3158.6627144105
41589	1026301 9853 5742 17652 75.75 152 306 -3.9419772624969 2.5000009536743 39.529638290405 349.74369015524
41588	1036154 9805 5711 17652 75.5 152 307 0 16.125 2223.1384409769 29878.775703384
41587	1045959 10523 5680 17652 75.25 152 308 235.53723144531 785.82187652588 160668.55652618 87946193.856019
41586	1056482 10562 5680 17652 75.25 152 308 483.14999389648 483.14999389648 148810.19812012 71897646.313469
vector 41775  IntersectionExampleScenario.node[50].veinsmobility  posx  ETV
vector 41776  IntersectionExampleScenario.node[50].veinsmobility  posy  ETV
vector 41777  IntersectionExampleScenario.node[50].veinsmobility  speed  ETV
vector 41778  IntersectionExampleScenario.node[50].veinsmobility  acceleration  ETV
vector 41779  IntersectionExampleScenario.node[50].veinsmobility  co2emission  ETV
41604	1067445 9195 6282 17766 80 153 293 0.973 11.648172402475 652.06579602106 2875.4145052529
41603	1076640 10002 6282 17766 80 153 293 -3.8300714492798 2.5 38.169347763062 319.96537371189
41602	1086642 9621 6249 17766 79.75 153 294 0 15.64999961853 2190.3745778976 28145.875148872
41601	1096263 10104 6216 17766 79.5 153 295 184.17810058594 483.1930847168 123931.98516846 54018474.706085
41600	1106367 10135 6216 17766 79.5 153 295 486.85000610352 734.44869995117 151996.67796326 79454364.477254
vector 41782  IntersectionExampleScenario.node[51].veinsmobility  posx  ETV
vector 41783  IntersectionExampleScenario.node[51].veinsmobility  posy  ETV
vector 41789  IntersectionExampleScenario.node[52].veinsmobility  posx  ETV
vector 41790  IntersectionExampleScenario.node[52].veinsmobility  posy  ETV
vector 41784  IntersectionExampleScenario.node[51].veinsmobility  speed  ETV
vector 41785  IntersectionExampleScenario.node[51].veinsmobility  acceleration  ETV
vector 41786  IntersectionExampleScenario.node[51].veinsmobility  co2emission  ETV
vector 41791  IntersectionExampleScenario.node[52].veinsmobility  speed  ETV
vector 41796  IntersectionExampleScenario.node[53].veinsmobility  posx  ETV
vector 41797  IntersectionExampleScenario.node[53].veinsmobility  posy  ETV
vector 41792  IntersectionExampleScenario.node[52].veinsmobility  acceleration  ETV
vector 41793  IntersectionExampleScenario.node[52].veinsmobility  co2emission  ETV
vector 41798  IntersectionExampleScenario.node[53].veinsmobility  speed  ETV
41632	1117536 8052 7832 17927 91 154.25 254 0.973 11.54047740176 603.33827568079 2810.7655488363
41631	1125588 8477 7832 17927 91 154.25 254 -3.8392231464386 2.5000019073486 36.98334312439 320.37107660877
41630	1134065 8567 7795 17927 90.75 154.25 255 0 15.5 2212.8996065725 28553.977979776
41629	1142632 8821 7758 17927 90.5 154.25 256 184.17810058594 732.08074951172 113829.44538879 54825041.164598
41628	1151453 8864 7758 17927 90.5 154.25 256 486.85000610352 486.85003662109 124633.60162354 60677869.740836
vector 41799  IntersectionExampleScenario.node[53].veinsmobility  acceleration  ETV
vector 41800  IntersectionExampleScenario.node[53].veinsmobility  co2emission  ETV
41646	1160486 7647 8377 17962 94.75 154.5 240 0.973 11.200708441096 591.46440049146 2781.6128841398
41645	1168133 8071 8377 17962 94.75 154.5 240 -3.7663614749908 2.5 37.32285118103 320.75282222302
41644	1176204 8139 8340 17962 94.5 154.5 241 0 15.470286369324 2210.8156392463 28741.161745042
41643	1184343 8377 8303 17962 94.25 154.5 242 238.57421875 785.82187652588 127135.47454071 70968383.168979
41642	1192720 8405 8303 17962 94.25 154.5 242 483.14999389648 483.14999389648 116922.29852295 56491007.817726
vector 41803  IntersectionExampleScenario.node[54].veinsmobility  posx  ETV
vector 41804  IntersectionExampleScenario.node[54].veinsmobility  posy  ETV
41653	1201279 7749 8672 18235 96.75 156.5 240 0.973 12.26218747632 657.33536011597 3399.1971299387
41652	1209028 7927 8672 18235 96.75 156.5 240 -4.5 2.5 41.736440658569 480.05459380546
41651	1216955 8035 8635 18235 96.5 156.5 241 0 16.5 2258.7968584821 30349.520805544
41650	1224990 8385 8598 18235 96.25 156.5 242 486.85000610352 803.92188262939 137120.19923401 79788715.129306
41649	1233375 8416 8598 18235 96.25 156.5 242 236.71612548828 483.14999389648 109130.82601929 50235426.106466
vector 41805  IntersectionExampleScenario.node[54].veinsmobility  speed  ETV
vector 41806  IntersectionExampleScenario.node[54].veinsmobility  acceleration  ETV
vector 41807  IntersectionExampleScenario.node[54].veinsmobility  co2emission  ETV
41674	1242038 7258 9131 18305 99.75 157 230 0.973 11.200708441096 566.0769336087 2668.6294295001
41673	1249296 7488 9131 18305 99.75 157 230 -3.6961255073547 2.5 36.813589096069 308.54122166407
41672	1256784 7823 9090 18305 99.5 157 231 0 15.02499961853 2215.921829123 28310.036396794
41671	1264607 8050 9049 18305 99.25 157 232 184.17810058594 732.77798461914 102735.87744141 49748476.571704
41670	1272657 8094 9049 18305 99.25 157 232 486.85000610352 486.85003662109 112949.20147705 54989319.458204
41667	1280751 7508 9049 18550 99.25 158.75 239 0.973 11.54047740176 602.31498246937 2951.1430324286
41666	1288259 7648 9049 18550 99.25 158.75 239 -4.8276786804199 2.5 37.15309715271 360.25526137638
41665	1295907 7801 9010 18550 99 158.75 240 0 15.5 2322.0043843687 30276.014762745
41664	1303708 8382 8971 18550 98.75 158.75 241 235.27404785156 810.46563720703 129185.12348938 74083437.957399
41663	1312090 8406 8971 18550 98.75 158.75 241 483.14999389648 483.14999389648 116439.14852905 56257573.901123
41709	1320496 6868 10582 18830 108.25 160.75 211 0.973 11.093806525473 592.3488494125 2855.8423378121
41708	1327364 6864 10582 18830 108.25 160.75 211 -4.5 2.5 38.680875778198 376.11358094266
41707	1334228 7192 10533 18830 108 160.75 212 1.9384213685989 15.37965965271 2298.6029731035 29814.465785797
41706	1341420 7424 10484 18830 107.75 160.75 213 162.00311279297 731.60154724121 91770.199813843 44198238.964518
41705	1348844 7456 10484 18830 107.75 160.75 213 486.85000610352 486.85003662109 103699.05133057 50485883.788072
41695	1356300 6852 10390 18900 107.25 161.25 217 0.973 10.756497587458 559.5223614929 2694.4791420653
41694	1363152 7039 10390 18900 107.25 161.25 217 -3.8355083465576 2.5 33.248777389526 363.95308047737
41693	1370191 7320 10343 18900 107 161.25 218 1.7588331699371 14.39999961853 2187.120824337 26073.299247288
41692	1377511 7615 10298 18900 106.75 161.25 219 184.17810058594 483.14999389648 88169.557373047 37355249.37942
41691	1385126 7655 10298 18900 106.75 161.25 219 486.84994506836 734.39414978027 115605.01104736 62137363.453318
41716	1392781 6281 11880 19278 115 164 197 0.973 11.648172402475 596.03244536207 3112.2941975699
41715	1399062 6574 11880 19278 115 164 197 -3.3439273834229 2.5 40.717924118042 395.31413309966
41714	1405636 6627 11831 19278 114.75 164 198 1.9573930501938 15.867376327515 2179.0068610907 28407.063383729
41713	1412263 6933 11782 19278 114.5 164 199 184.17810058594 483.14999389648 79868.149780273 33807250.52675
41712	1419196 6956 11782 19278 114.5 164 199 486.84997558594 732.26434326172 104840.60142517 56202393.935818
vector 41810  IntersectionExampleScenario.node[55].veinsmobility  posx  ETV
vector 41811  IntersectionExampleScenario.node[55].veinsmobility  posy  ETV
vector 41812  IntersectionExampleScenario.node[55].veinsmobility  speed  ETV
vector 41813  IntersectionExampleScenario.node[55].veinsmobility  acceleration  ETV
vector 41814  IntersectionExampleScenario.node[55].veinsmobility  co2emission  ETV
vector 41817  IntersectionExampleScenario.node[56].veinsmobility  posx  ETV
vector 41818  IntersectionExampleScenario.node[56].veinsmobility  posy  ETV
vector 41819  IntersectionExampleScenario.node[56].veinsmobility  speed  ETV
vector 41820  IntersectionExampleScenario.node[56].veinsmobility  acceleration  ETV
vector 41821  IntersectionExampleScenario.node[56].veinsmobility  co2emission  ETV
41730	1426954 5157 14510 19655 129 166.75 152 0.973 11.648172402475 486.37461088614 2671.2042617967
41729	1432111 4975 14510 19655 129 166.75 152 -3.226936340332 2.5 39.699392318726 204.97198809527
41728	1437086 5126 14463 19655 128.75 166.75 153 5.6500000953674 16.060977935791 2222.1293563843 32984.320508794
41727	1442212 5356 14415 19655 128.5 166.75 154 184.17810058594 734.42930603027 69087.379302979 35097705.587148
41726	1447568 5391 14415 19655 128.5 166.75 154 486.85000610352 486.85000610352 74974.900939941 36501530.980221
vector 41824  IntersectionExampleScenario.node[57].veinsmobility  posx  ETV
vector 41825  IntersectionExampleScenario.node[57].veinsmobility  posy  ETV
vector 41826  IntersectionExampleScenario.node[57].veinsmobility  speed  ETV
vector 41827  IntersectionExampleScenario.node[57].veinsmobility  acceleration  ETV
vector 41828  IntersectionExampleScenario.node[57].veinsmobility  co2emission  ETV
vector 41831  IntersectionExampleScenario.node[58].veinsmobility  posx  ETV
vector 41832  IntersectionExampleScenario.node[58].veinsmobility  posy  ETV
vector 41833  IntersectionExampleScenario.node[58].veinsmobility  speed  ETV
vector 41834  IntersectionExampleScenario.node[58].veinsmobility  acceleration  ETV
vector 41835  IntersectionExampleScenario.node[58].veinsmobility  co2emission  ETV
41737	1453761 5159 15293 20327 133.5 171 151 0.973 11.990504229548 479.97191342524 2613.7218177773
41736	1458920 4645 15293 20327 133.5 171 151 -3.2447547912598 2.5 39.869146347046 201.41922718971
41735	1463565 5067 15250 20327 133.25 171 152 5.6500000953674 16.125 2212.2037334442 32921.068151754
41734	1468632 5316 15207 20327 133 171 153 238.06097412109 785.82187652588 79972.657585144 45844433.356388
41733	1473948 5353 15207 20327 133 171 153 483.14999389648 483.14999389648 73921.949066162 35715389.240132
vector 41838  IntersectionExampleScenario.node[59].veinsmobility  posx  ETV
vector 41839  IntersectionExampleScenario.node[59].veinsmobility  posy  ETV
vector 41840  IntersectionExampleScenario.node[59].veinsmobility  speed  ETV
vector 41841  IntersectionExampleScenario.node[59].veinsmobility  acceleration  ETV
vector 41842  IntersectionExampleScenario.node[59].veinsmobility  co2emission  ETV
vector 41845  IntersectionExampleScenario.node[60].veinsmobility  posx  ETV
vector 41846  IntersectionExampleScenario.node[60].veinsmobility  posy  ETV
vector 41847  IntersectionExampleScenario.node[60].veinsmobility  speed  ETV
vector 41848  IntersectionExampleScenario.node[60].veinsmobility  acceleration  ETV
vector 41849  IntersectionExampleScenario.node[60].veinsmobility  co2emission  ETV
vector 41852  IntersectionExampleScenario.node[61].veinsmobility  posx  ETV
vector 41853  IntersectionExampleScenario.node[61].veinsmobility  posy  ETV
vector 41854  IntersectionExampleScenario.node[61].veinsmobility  speed  ETV
vector 41855  IntersectionExampleScenario.node[61].veinsmobility  acceleration  ETV
vector 41856  IntersectionExampleScenario.node[61].veinsmobility  co2emission  ETV
vector 41859  IntersectionExampleScenario.node[62].veinsmobility  posx  ETV
vector 41860  IntersectionExampleScenario.node[62].veinsmobility  posy  ETV
vector 41861  IntersectionExampleScenario.node[62].veinsmobility  speed  ETV
vector 41862  IntersectionExampleScenario.node[62].veinsmobility  acceleration  ETV
vector 41863  IntersectionExampleScenario.node[62].veinsmobility  co2emission  ETV
41751	1480905 5216 16367 21616 140.75 179 154 0.94600815583079 12.26218747632 527.14356829131 3157.1970935794
41750	1486121 4829 16367 21616 140.75 179 154 -3.400951385498 2.5 41.566686630249 308.79117131941
41749	1490950 5064 16333 21616 140.5 179 155 5.6500000953674 16.5 2182.2238035202 32366.974287203
41748	1496014 5432 16298 21616 140.25 179 156 184.17810058594 483.14999389648 61964.013275146 26314106.62495
41747	1501446 5454 16298 21616 140.25 179 156 486.85000610352 732.74047851562 83724.386276245 45815022.445717
vector 41866  IntersectionExampleScenario.node[63].veinsmobility  posx  ETV
vector 41867  IntersectionExampleScenario.node[63].veinsmobility  posy  ETV
vector 41873  IntersectionExampleScenario.node[64].veinsmobility  posx  ETV
vector 41874  IntersectionExampleScenario.node[64].veinsmobility  posy  ETV
vector 41880  IntersectionExampleScenario.node[65].veinsmobility  posx  ETV
vector 41881  IntersectionExampleScenario.node[65].veinsmobility  posy  ETV
vector 41868  IntersectionExampleScenario.node[63].veinsmobility  speed  ETV
vector 41875  IntersectionExampleScenario.node[64].veinsmobility  speed  ETV
vector 41869  IntersectionExampleScenario.node[63].veinsmobility  acceleration  ETV
vector 41870  IntersectionExampleScenario.node[63].veinsmobility  co2emission  ETV
vector 41876  IntersectionExampleScenario.node[64].veinsmobility  acceleration  ETV
vector 41877  IntersectionExampleScenario.node[64].veinsmobility  co2emission  ETV
vector 41882  IntersectionExampleScenario.node[65].veinsmobility  speed  ETV
vector 41883  IntersectionExampleScenario.node[65].veinsmobility  acceleration  ETV
vector 41884  IntersectionExampleScenario.node[65].veinsmobility  co2emission  ETV
vector 41887  IntersectionExampleScenario.node[66].veinsmobility  posx  ETV
vector 41888  IntersectionExampleScenario.node[66].veinsmobility  posy  ETV
vector 41889  IntersectionExampleScenario.node[66].veinsmobility  speed  ETV
vector 41890  IntersectionExampleScenario.node[66].veinsmobility  acceleration  ETV
vector 41891  IntersectionExampleScenario.node[66].veinsmobility  co2emission  ETV
vector 41894  IntersectionExampleScenario.node[67].veinsmobility  posx  ETV
vector 41895  IntersectionExampleScenario.node[67].veinsmobility  posy  ETV
vector 41896  IntersectionExampleScenario.node[67].veinsmobility  speed  ETV
vector 41897  IntersectionExampleScenario.node[67].veinsmobility  acceleration  ETV
vector 41898  IntersectionExampleScenario.node[67].veinsmobility  co2emission  ETV
vector 41901  IntersectionExampleScenario.node[68].veinsmobility  posx  ETV
vector 41902  IntersectionExampleScenario.node[68].veinsmobility  posy  ETV
vector 41903  IntersectionExampleScenario.node[68].veinsmobility  speed  ETV
vector 41904  IntersectionExampleScenario.node[68].veinsmobility  acceleration  ETV
vector 41905  IntersectionExampleScenario.node[68].veinsmobility  co2emission  ETV
41765	1509306 5340 17194 23016 147.75 186.5 156 0.973 11.54047740176 464.63231158543 2336.4085283449
41764	1514646 4774 17194 23016 147.75 186.5 156 -2.9061431884766 2.5 37.32285118103 179.22973772633
41763	1519420 5259 17166 23016 147.5 186.5 157 5.6500000953674 15.5 2216.5902757645 31875.991883042
41762	1524679 5520 17137 23016 147.25 186.5 158 236.77197265625 785.82187652588 82351.454399109 47114349.676633
41761	1530199 5531 17137 23016 147.25 186.5 158 483.14999389648 483.14999389648 76337.699035645 36882558.823143
vector 41908  IntersectionExampleScenario.node[69].veinsmobility  posx  ETV
vector 41909  IntersectionExampleScenario.node[69].veinsmobility  posy  ETV
vector 41910  IntersectionExampleScenario.node[69].veinsmobility  speed  ETV
vector 41915  IntersectionExampleScenario.node[70].veinsmobility  posx  ETV
vector 41916  IntersectionExampleScenario.node[70].veinsmobility  posy  ETV
vector 41911  IntersectionExampleScenario.node[69].veinsmobility  acceleration  ETV
vector 41912  IntersectionExampleScenario.node[69].veinsmobility  co2emission  ETV
vector 41922  IntersectionExampleScenario.node[71].veinsmobility  posx  ETV
vector 41923  IntersectionExampleScenario.node[71].veinsmobility  posy  ETV
vector 41917  IntersectionExampleScenario.node[70].veinsmobility  speed  ETV
vector 41918  IntersectionExampleScenario.node[70].veinsmobility  acceleration  ETV
vector 41919  IntersectionExampleScenario.node[70].veinsmobility  co2emission  ETV
vector 41924  IntersectionExampleScenario.node[71].veinsmobility  speed  ETV
vector 41925  IntersectionExampleScenario.node[71].veinsmobility  acceleration  ETV
vector 41926  IntersectionExampleScenario.node[71].veinsmobility  co2emission  ETV
41772	1536933 5103 17625 23460 151.75 188.75 149 0.973 12.099024792222 489.0549849157 2759.7990548981
41771	1542036 4721 17625 23460 151.75 188.75 149 -3.3615913391113 2.5 41.227170944214 211.90553980647
41770	1546757 4996 17598 23460 151.5 188.75 150 5.6500000953674 16.27499961853 2215.648601532 33537.560656479
41769	1551753 5254 17571 23460 151.25 188.75 151 184.17810058594 732.68084716797 67552.648910522 34216840.623324
41768	1557007 5287 17571 23460 151.25 188.75 151 486.85000610352 486.85000610352 73514.350921631 35790462.194892
vector 41929  IntersectionExampleScenario.node[72].veinsmobility  posx  ETV
vector 41930  IntersectionExampleScenario.node[72].veinsmobility  posy  ETV
vector 41936  IntersectionExampleScenario.node[73].veinsmobility  posx  ETV
vector 41937  IntersectionExampleScenario.node[73].veinsmobility  posy  ETV
vector 41931  IntersectionExampleScenario.node[72].veinsmobility  speed  ETV
vector 41932  IntersectionExampleScenario.node[72].veinsmobility  acceleration  ETV
vector 41933  IntersectionExampleScenario.node[72].veinsmobility  co2emission  ETV
vector 41938  IntersectionExampleScenario.node[73].veinsmobility  speed  ETV
vector 41943  IntersectionExampleScenario.node[74].veinsmobility  posx  ETV
vector 41944  IntersectionExampleScenario.node[74].veinsmobility  posy  ETV
vector 41939  IntersectionExampleScenario.node[73].veinsmobility  acceleration  ETV
vector 41940  IntersectionExampleScenario.node[73].veinsmobility  co2emission  ETV
vector 41950  IntersectionExampleScenario.node[75].veinsmobility  posx  ETV
vector 41951  IntersectionExampleScenario.node[75].veinsmobility  posy  ETV
vector 41945  IntersectionExampleScenario.node[74].veinsmobility  speed  ETV
vector 41946  IntersectionExampleScenario.node[74].veinsmobility  acceleration  ETV
vector 41947  IntersectionExampleScenario.node[74].veinsmobility  co2emission  ETV
vector 41952  IntersectionExampleScenario.node[75].veinsmobility  speed  ETV
vector 41953  IntersectionExampleScenario.node[75].veinsmobility  acceleration  ETV
vector 41954  IntersectionExampleScenario.node[75].veinsmobility  co2emission  ETV
vector 41957  IntersectionExampleScenario.node[76].veinsmobility  posx  ETV
vector 41958  IntersectionExampleScenario.node[76].veinsmobility  posy  ETV
41583	1564052 14152 4298 24261 63.5 192.5 517 0.973 11.450879080643 879.65891080777 3152.4470808191
41582	1578204 11936 4298 24261 63.5 192.5 517 -42.981872558594 4 37.492597579956 2163.6634533556
41581	1590140 12586 4267 24261 63.25 192.5 518 0 15.375 2214.3831100464 31609.493344463
41580	1602726 17848 4236 24261 63 192.5 519 483.14999389648 483.14999389648 250754.84683228 121152202.71653
41579	1620574 17819 4236 24261 63 192.5 519 184.17810058594 734.38114929199 241262.02401733 116417268.91157
vector 41964  IntersectionExampleScenario.node[77].veinsmobility  posx  ETV
vector 41965  IntersectionExampleScenario.node[77].veinsmobility  posy  ETV
vector 41959  IntersectionExampleScenario.node[76].veinsmobility  speed  ETV
vector 41960  IntersectionExampleScenario.node[76].veinsmobility  acceleration  ETV
vector 41961  IntersectionExampleScenario.node[76].veinsmobility  co2emission  ETV
vector 41966  IntersectionExampleScenario.node[77].veinsmobility  speed  ETV
vector 41967  IntersectionExampleScenario.node[77].veinsmobility  acceleration  ETV
vector 41968  IntersectionExampleScenario.node[77].veinsmobility  co2emission  ETV
41611	1639041 13002 6451 24553 81.25 193.75 451 0.973 12.099024792222 823.56277831086 3289.6123533634
41610	1652043 12756 6451 24553 81.25 193.75 451 -3.760924577713 2.5 40.038900375366 344.63004841907
41609	1664799 12873 6416 24553 81 193.75 452 0 16.27499961853 2209.2494116733 30066.232481418
41608	1677672 15682 6381 24553 80.75 193.75 453 483.14999389648 483.14999389648 218866.94723511 105745564.22079
41607	1693354 15627 6381 24553 80.75 193.75 453 184.17810058594 731.54241943359 207322.03591919 98953921.444259
vector 41971  IntersectionExampleScenario.node[78].veinsmobility  posx  ETV
vector 41972  IntersectionExampleScenario.node[78].veinsmobility  posy  ETV
vector 41973  IntersectionExampleScenario.node[78].veinsmobility  speed  ETV
vector 41974  IntersectionExampleScenario.node[78].veinsmobility  acceleration  ETV
vector 41975  IntersectionExampleScenario.node[78].veinsmobility  co2emission  ETV
41618	1709382 13223 7190 25473 86.5 197.75 446 0.973 11.36141391502 795.3687130173 3006.9214829024
41617	1722605 13181 7190 25473 86.5 197.75 446 -3.8621213436127 2.5 36.813589096069 351.42872893869
41616	1735786 13074 7153 25473 86.25 197.75 447 0 15.25 2184.7827294366 27355.307747676
41615	1748860 15540 7116 25473 86 197.75 448 236.6845703125 483.14999389648 208052.65737915 97838933.459674
41614	1764400 15510 7116 25473 86 197.75 448 184.17810058594 483.24591064453 194437.05984497 86539437.063357
41681	1779910 12104 9381 26105 101.25 200.5 398 0.973 11.200708441096 736.09338979585 2788.7951127333
41680	1792014 12155 9381 26105 101.25 200.5 398 -3.9471282958984 2.5 35.795072555542 307.63559687543
41679	1804169 12148 9338 26105 101 200.5 399 0 15.02499961853 2182.4456280172 27315.767408624
41678	1816317 13976 9295 26105 100.75 200.5 400 237.36950683594 483.14999389648 184766.71713257 86554619.706344
41677	1830293 13941 9295 26105 100.75 200.5 400 184.17810058594 483.18496704102 171201.82852173 75335787.645807
41702	1844234 11820 10437 26561 107.5 202.5 381 0.973 11.200708441096 727.65155177461 2838.7578146307
41701	1856054 12237 10437 26561 107.5 202.5 381 -3.9127373695374 2.5 37.32285118103 324.80677076481
41700	1868291 12096 10390 26561 107.25 202.5 382 0 15.032837867737 2184.4142721696 27451.187150091
41699	1880387 13395 10343 26561 107 202.5 383 236.91833496094 483.14999389648 176735.97982788 82735709.507766
41698	1893782 13364 10343 26561 107 202.5 383 184.17810058594 483.32318115234 162021.42816162 70512785.075889
vector 41978  IntersectionExampleScenario.node[79].veinsmobility  posx  ETV
vector 41979  IntersectionExampleScenario.node[79].veinsmobility  posy  ETV
vector 41980  IntersectionExampleScenario.node[79].veinsmobility  speed  ETV
41723	1907378 10148 13334 26677 122.75 203 322 0.973 11.990504229548 700.51626464579 3250.0361167336
41722	1917526 10740 13334 26677 122.75 203 322 -3.7230837345123 2.5 39.699392318726 344.4156364257
41721	1928266 10607 13287 26677 122.5 203 323 0 16.125 2221.6784318155 29469.599916615
41720	1938873 11340 13240 26677 122.25 203 324 483.14999389648 483.14999389648 156540.59802246 75632588.979104
41719	1950213 11291 13240 26677 122.25 203 324 184.17810058594 733.85186767578 143012.18421936 67256684.414239
vector 41981  IntersectionExampleScenario.node[79].veinsmobility  acceleration  ETV
vector 41982  IntersectionExampleScenario.node[79].veinsmobility  co2emission  ETV
vector 41985  IntersectionExampleScenario.node[80].veinsmobility  posx  ETV
vector 41986  IntersectionExampleScenario.node[80].veinsmobility  posy  ETV
vector 41987  IntersectionExampleScenario.node[80].veinsmobility  speed  ETV
vector 41988  IntersectionExampleScenario.node[80].veinsmobility  acceleration  ETV
vector 41989  IntersectionExampleScenario.node[80].veinsmobility  co2emission  ETV
41744	1962074 8596 15654 27488 135.75 206.5 284 0.973 11.648172402475 669.21918306596 3246.1250826935
41743	1970670 8685 15654 27488 135.75 206.5 284 -3.7761363983154 2.5 38.511121749878 428.81376706138
41742	1979355 8807 15613 27488 135.5 206.5 285 0 15.64999961853 2188.0885674618 27922.056319075
41741	1988162 9990 15572 27488 135.25 206.5 286 235.86859130859 483.14999389648 129947.46353149 60158533.743208
41740	1998152 9987 15572 27488 135.25 206.5 286 184.17810058594 483.15502929688 117389.44332886 50008855.892099
41800	2008139 6799 17962 27724 154.5 207.5 213 0.973 11.648172402475 588.16769442854 3079.0050987134
41799	2014938 7005 17962 27724 154.5 207.5 213 -3.8221282958984 2.5 38.511121749878 352.77307827748
41798	2021943 7227 17927 27724 154.25 207.5 214 0 15.64999961853 2218.9809059501 28918.262305438
41797	2029170 7524 17892 27724 154 207.5 215 483.14999389648 483.14999389648 103877.24868774 50188292.069467
41796	2036694 7481 17892 27724 154 207.5 215 184.17810058594 734.05690002441 94600.41835022 45839588.308197
vector 41992  IntersectionExampleScenario.node[81].veinsmobility  posx  ETV
vector 41993  IntersectionExampleScenario.node[81].veinsmobility  posy  ETV
vector 41999  IntersectionExampleScenario.node[82].veinsmobility  posx  ETV
vector 42000  IntersectionExampleScenario.node[82].veinsmobility  posy  ETV
vector 41994  IntersectionExampleScenario.node[81].veinsmobility  speed  ETV
vector 41995  IntersectionExampleScenario.node[81].veinsmobility  acceleration  ETV
vector 41996  IntersectionExampleScenario.node[81].veinsmobility  co2emission  ETV
vector 42001  IntersectionExampleScenario.node[82].veinsmobility  speed  ETV
vector 42002  IntersectionExampleScenario.node[82].veinsmobility  acceleration  ETV
vector 42003  IntersectionExampleScenario.node[82].veinsmobility  co2emission  ETV
41814	2044977 5627 19546 28092 166 209 173 0.973 11.648172402475 547.07256313284 3015.1564130545
41813	2050604 5445 19546 28092 166 209 173 -4.27685546875 2.5 39.869146347046 291.25274419253
41812	2056049 5867 19511 28092 165.75 209 174 5.6500000953674 15.64999961853 2210.7179493904 29712.522316607
41811	2061916 6124 19476 28092 165.5 209 175 483.14999389648 483.14999389648 84551.248931885 40850935.40538
41810	2068040 6086 19476 28092 165.5 209 175 184.17810058594 731.58200073242 77259.082870483 38211247.640916
vector 42006  IntersectionExampleScenario.node[83].veinsmobility  posx  ETV
vector 42007  IntersectionExampleScenario.node[83].veinsmobility  posy  ETV
vector 42008  IntersectionExampleScenario.node[83].veinsmobility  speed  ETV
vector 42009  IntersectionExampleScenario.node[83].veinsmobility  acceleration  ETV
vector 42010  IntersectionExampleScenario.node[83].veinsmobility  co2emission  ETV
vector 42013  IntersectionExampleScenario.node[84].veinsmobility  posx  ETV
vector 42014  IntersectionExampleScenario.node[84].veinsmobility  posy  ETV
vector 42015  IntersectionExampleScenario.node[84].veinsmobility  speed  ETV
vector 42016  IntersectionExampleScenario.node[84].veinsmobility  acceleration  ETV
vector 42017  IntersectionExampleScenario.node[84].veinsmobility  co2emission  ETV
vector 42020  IntersectionExampleScenario.node[85].veinsmobility  posx  ETV
vector 42021  IntersectionExampleScenario.node[85].veinsmobility  posy  ETV
vector 42027  IntersectionExampleScenario.node[86].veinsmobility  posx  ETV
vector 42028  IntersectionExampleScenario.node[86].veinsmobility  posy  ETV
vector 42022  IntersectionExampleScenario.node[85].veinsmobility  speed  ETV
vector 42029  IntersectionExampleScenario.node[86].veinsmobility  speed  ETV
vector 42023  IntersectionExampleScenario.node[85].veinsmobility  acceleration  ETV
vector 42024  IntersectionExampleScenario.node[85].veinsmobility  co2emission  ETV
vector 42030  IntersectionExampleScenario.node[86].veinsmobility  acceleration  ETV
vector 42031  IntersectionExampleScenario.node[86].veinsmobility  co2emission  ETV
41849	2075730 5263 21038 29520 175.5 214.5 157 0.973 11.898350494053 516.58355018781 3083.6851859603
41848	2080993 5110 21038 29520 175.5 214.5 157 -3.3011741638184 2.5 39.869146347046 300.49867006831
41847	2086103 5198 20997 29520 175.25 214.5 158 5.6500000953674 15.997404098511 2176.1022901535 31435.1639702
41846	2091301 5535 20956 29520 175 214.5 159 238.84552001953 483.14999389648 68945.759857178 30783230.070786
41845	2096836 5536 20956 29520 175 214.5 159 184.17810058594 483.17120361328 63117.124664307 26778317.222416
vector 42034  IntersectionExampleScenario.node[87].veinsmobility  posx  ETV
vector 42035  IntersectionExampleScenario.node[87].veinsmobility  posy  ETV
vector 42036  IntersectionExampleScenario.node[87].veinsmobility  speed  ETV
vector 42037  IntersectionExampleScenario.node[87].veinsmobility  acceleration  ETV
vector 42038  IntersectionExampleScenario.node[87].veinsmobility  co2emission  ETV
41884	2102773 5238 21879 30748 180.5 219.25 156 0.973 11.810082123732 520.57666375976 3029.7347008639
41883	2108011 5114 21879 30748 180.5 219.25 156 -3.3322334289551 2.5 40.208654403687 290.7810122394
41882	2113125 5181 21832 30748 180.25 219.25 157 5.6500000953674 16.07423210144 2177.0831413269 31678.601901232
41881	2118306 5508 21785 30748 180 219.25 158 238.69567871094 483.14999389648 68498.886383057 30580413.998722
41880	2123814 5502 21785 30748 180 219.25 158 184.17810058594 483.14999389648 62736.025390625 26626405.229394
vector 42041  IntersectionExampleScenario.node[88].veinsmobility  posx  ETV
vector 42042  IntersectionExampleScenario.node[88].veinsmobility  posy  ETV
vector 42043  IntersectionExampleScenario.node[88].veinsmobility  speed  ETV
vector 42044  IntersectionExampleScenario.node[88].veinsmobility  acceleration  ETV
vector 42045  IntersectionExampleScenario.node[88].veinsmobility  co2emission  ETV
41919	2129717 5159 23307 32285 188 225.5 151 0.973 11.990504229548 479.97191342524 2613.7218177773
41918	2134876 4645 23307 32285 188 225.5 151 -3.2447547912598 2.5 39.869146347046 201.41922718971
41917	2139521 5067 23256 32285 187.75 225.5 152 5.6500000953674 16.125 2212.2037334442 32921.068151754
41916	2144588 5355 23207 32285 187.5 225.5 153 483.14999389648 483.14999389648 73921.949066162 35715389.240132
41915	2149943 5302 23207 32285 187.5 225.5 153 184.17810058594 731.93894958496 68437.339294434 34655173.128641
vector 42048  IntersectionExampleScenario.node[89].veinsmobility  posx  ETV
vector 42049  IntersectionExampleScenario.node[89].veinsmobility  posy  ETV
vector 42050  IntersectionExampleScenario.node[89].veinsmobility  speed  ETV
vector 42051  IntersectionExampleScenario.node[89].veinsmobility  acceleration  ETV
vector 42052  IntersectionExampleScenario.node[89].veinsmobility  co2emission  ETV
41688	2155646 13533 10212 32715 106.25 227.25 485 0.973 12.353032912318 889.65907505175 3604.5249407073
41687	2169179 11863 10212 32715 106.25 227.25 485 -37.654960632324 4 42.924703598022 1776.3768059674
41686	2181042 12051 10169 32715 106 227.25 486 0 16.625 2195.2623767853 33369.701320217
41685	2193093 17036 10126 32715 105.75 227.25 487 238.23779296875 486.85000610352 229333.37731934 109155123.16858
41684	2210129 17029 10126 32715 105.75 227.25 487 483.14999389648 785.82187652588 254002.54732513 134778026.76409
vector 42055  IntersectionExampleScenario.node[90].veinsmobility  posx  ETV
vector 42056  IntersectionExampleScenario.node[90].veinsmobility  posy  ETV
vector 42057  IntersectionExampleScenario.node[90].veinsmobility  speed  ETV
vector 42058  IntersectionExampleScenario.node[90].veinsmobility  acceleration  ETV
vector 42059  IntersectionExampleScenario.node[90].veinsmobility  co2emission  ETV
vector 42062  IntersectionExampleScenario.node[91].veinsmobility  posx  ETV
vector 42063  IntersectionExampleScenario.node[91].veinsmobility  posy  ETV
vector 42064  IntersectionExampleScenario.node[91].veinsmobility  speed  ETV
vector 42065  IntersectionExampleScenario.node[91].veinsmobility  acceleration  ETV
vector 42066  IntersectionExampleScenario.node[91].veinsmobility  co2emission  ETV
41758	2227960 10987 16496 33736 141.75 231.25 359 0.973 11.200708441096 699.42051723151 2759.7487569685
41757	2238947 11234 16496 33736 141.75 231.25 359 -3.8765723705292 2.5 35.795072555542 311.35077201029
41756	2250181 11180 16463 33736 141.5 231.25 360 0 15.02499961853 2205.0302938372 28292.523409632
41755	2261361 12622 16430 33736 141.25 231.25 361 237.05169677734 486.85000610352 167016.64337158 78514786.161515
41754	2273983 12613 16430 33736 141.25 231.25 361 483.1037902832 785.82187652588 193824.53336334 106259765.65378
vector 42069  IntersectionExampleScenario.node[92].veinsmobility  posx  ETV
vector 42070  IntersectionExampleScenario.node[92].veinsmobility  posy  ETV
vector 42071  IntersectionExampleScenario.node[92].veinsmobility  speed  ETV
vector 42076  IntersectionExampleScenario.node[93].veinsmobility  posx  ETV
vector 42077  IntersectionExampleScenario.node[93].veinsmobility  posy  ETV
vector 42072  IntersectionExampleScenario.node[92].veinsmobility  acceleration  ETV
vector 42073  IntersectionExampleScenario.node[92].veinsmobility  co2emission  ETV
vector 42078  IntersectionExampleScenario.node[93].veinsmobility  speed  ETV
41779	2287229 10208 17737 34374 152.75 233.75 325 0.973 11.36141391502 670.4229246415 2864.5475749303
41778	2297437 10602 17737 34374 152.75 233.75 325 -3.9474346637726 2.5 35.964826583862 331.26678813396
41777	2308039 10534 17708 34374 152.5 233.75 326 0 15.25 2189.0538734244 27594.262043637
41776	2318573 11443 17679 34374 152.25 233.75 327 486.85000610352 734.26148986816 167772.30726624 87264516.165875
41775	2330016 11420 17679 34374 152.25 233.75 327 486.83944702148 785.82187652588 178030.1031723 98986957.943908
vector 42079  IntersectionExampleScenario.node[93].veinsmobility  acceleration  ETV
vector 42080  IntersectionExampleScenario.node[93].veinsmobility  co2emission  ETV
41821	2341605 8892 19655 34832 166.75 235.5 276 0.973 11.648172402475 647.16910103126 3009.0399745267
41820	2350497 9227 19655 34832 166.75 235.5 276 -3.7591300010681 2.5000009536743 39.699392318726 335.27623517453
41819	2359724 9352 19618 34832 166.5 235.5 277 0 15.64999961853 2190.1629696572 28692.955537913
41818	2369076 9719 19581 34832 166.25 235.5 278 486.85000610352 734.34748840332 143450.96476746 75116986.859893
41817	2378795 9712 19581 34832 166.25 235.5 278 486.85000610352 785.82187652588 153404.43041229 86563803.958021
vector 42083  IntersectionExampleScenario.node[94].veinsmobility  posx  ETV
vector 42084  IntersectionExampleScenario.node[94].veinsmobility  posy  ETV
41856	2388661 7657 21283 35156 177 236.75 240 0.973 11.648172402475 594.52486089308 2920.0229305919
41855	2396318 7997 21283 35156 177 236.75 240 -3.9542214870453 2.5 38.511121749878 321.0369706052
41854	2404315 8185 21242 35156 176.75 236.75 241 0 15.64999961853 2218.1688958015 29063.645248734
41853	2412500 8471 21201 35156 176.5 236.75 242 486.85000610352 486.85000610352 117817.70147705 57359548.683204
41852	2420971 8438 21201 35156 176.5 236.75 242 236.75012207031 785.82187652588 127214.71259308 71039288.644377
vector 42085  IntersectionExampleScenario.node[94].veinsmobility  speed  ETV
vector 42086  IntersectionExampleScenario.node[94].veinsmobility  acceleration  ETV
vector 42087  IntersectionExampleScenario.node[94].veinsmobility  co2emission  ETV
vector 42090  IntersectionExampleScenario.node[95].veinsmobility  posx  ETV
vector 42091  IntersectionExampleScenario.node[95].veinsmobility  posy  ETV
vector 42092  IntersectionExampleScenario.node[95].veinsmobility  speed  ETV
vector 42093  IntersectionExampleScenario.node[95].veinsmobility  acceleration  ETV
vector 42094  IntersectionExampleScenario.node[95].veinsmobility  co2emission  ETV
41905	2430057 7033 22580 36070 184.25 240.25 225 0.973 11.36141391502 585.74660199304 2976.5920555078
41904	2437090 7456 22580 36070 184.25 240.25 225 -4.2717552185059 2.5 37.32285118103 393.61530937004
41903	2444546 7573 22531 36070 184 240.25 226 0 15.25 2187.30214867 27399.089073815
41902	2452119 7938 22482 36070 183.75 240.25 227 486.85000610352 733.97737121582 118886.78608704 63331457.912945
41901	2460057 7925 22482 36070 183.75 240.25 227 486.82751464844 785.82187652588 128126.83483124 74139740.001033
41982	2467982 5239 26735 36709 203.25 242.75 159 0.973 12.099024792222 557.23807239915 3479.3904316645
41981	2473221 5177 26735 36709 203.25 242.75 159 -3.2645797729492 2.5 41.227170944214 324.70212520555
41980	2478398 5296 26677 36709 203 242.75 160 5.6500000953674 16.27499961853 2186.6549053192 31388.623836399
41979	2483694 5627 26618 36709 202.75 242.75 161 486.85000610352 733.61030578613 86263.831100464 47123622.431203
41978	2489321 5629 26618 36709 202.75 242.75 161 486.85000610352 785.82187652588 92219.54082489 54535102.777851
vector 42097  IntersectionExampleScenario.node[96].veinsmobility  posx  ETV
vector 42098  IntersectionExampleScenario.node[96].veinsmobility  posy  ETV
vector 42099  IntersectionExampleScenario.node[96].veinsmobility  speed  ETV
42003	2495182 5065 28029 37467 208.75 245.75 149 0.973 12.099024792222 493.4116059702 2893.8515407923
42002	2500247 4918 28029 37467 208.75 245.75 149 -3.422981262207 2.5 41.227170944214 222.38374088274
42001	2505165 4997 27966 37467 208.5 245.75 150 5.6500000953674 16.382911682129 2216.0027589798 33547.950875211
42000	2510162 5287 27903 37467 208.25 245.75 151 486.85000610352 486.85000610352 73514.350921631 35790462.194892
41999	2515449 5279 27903 37467 208.25 245.75 151 237.26330566406 785.82187652588 78916.052223206 45240542.823127
vector 42100  IntersectionExampleScenario.node[96].veinsmobility  acceleration  ETV
vector 42101  IntersectionExampleScenario.node[96].veinsmobility  co2emission  ETV
vector 42104  IntersectionExampleScenario.node[97].veinsmobility  posx  ETV
vector 42105  IntersectionExampleScenario.node[97].veinsmobility  posy  ETV
42024	2521051 5031 29185 38572 213.25 250 148 0.973 11.90022389248 485.01877235778 2747.014552435
42023	2526082 4632 29185 38572 213.25 250 148 -3.296012878418 2.5 39.869146347046 241.95388036818
42022	2530714 4914 29118 38572 213 250 149 5.6500000953674 16 2103.6237716675 30728.076867729
42021	2535628 5242 29051 38572 212.75 250 150 235.73577880859 486.85000610352 64742.063934326 28871028.08799
42020	2540870 5243 29051 38572 212.75 250 150 483.14999389648 758.74375915527 84181.942451477 48630121.472106
vector 42106  IntersectionExampleScenario.node[97].veinsmobility  speed  ETV
vector 42111  IntersectionExampleScenario.node[98].veinsmobility  posx  ETV
vector 42112  IntersectionExampleScenario.node[98].veinsmobility  posy  ETV
vector 42107  IntersectionExampleScenario.node[97].veinsmobility  acceleration  ETV
vector 42108  IntersectionExampleScenario.node[97].veinsmobility  co2emission  ETV
vector 42113  IntersectionExampleScenario.node[98].veinsmobility  speed  ETV
vector 42114  IntersectionExampleScenario.node[98].veinsmobility  acceleration  ETV
vector 42115  IntersectionExampleScenario.node[98].veinsmobility  co2emission  ETV
vector 42118  IntersectionExampleScenario.node[99].veinsmobility  posx  ETV
vector 42119  IntersectionExampleScenario.node[99].veinsmobility  posy  ETV
vector 42120  IntersectionExampleScenario.node[99].veinsmobility  speed  ETV
vector 42121  IntersectionExampleScenario.node[99].veinsmobility  acceleration  ETV
vector 42122  IntersectionExampleScenario.node[99].veinsmobility  co2emission  ETV
42010	2547162 5845 28410 39475 210.25 253.25 173 0.973 11.36141391502 581.37252407426 3267.1141460238
42009	2553007 5507 28410 39475 210.25 253.25 173 -4.5 2.5 38.341367721558 444.81352551833
42008	2558514 5769 28346 39475 210 253.25 174 5.6500000953674 15.467361450195 2266.148062706 31202.016501096
42007	2564283 6102 28281 39475 209.75 253.25 175 486.85000610352 733.54261779785 93415.720230103 50826386.343288
42006	2570385 6114 28281 39475 209.75 253.25 175 486.84399414062 806.11563110352 102873.43279266 62769611.191021
vector 42125  IntersectionExampleScenario.node[100].veinsmobility  posx  ETV
vector 42126  IntersectionExampleScenario.node[100].veinsmobility  posy  ETV
vector 42132  IntersectionExampleScenario.node[101].veinsmobility  posx  ETV
vector 42133  IntersectionExampleScenario.node[101].veinsmobility  posy  ETV
vector 42127  IntersectionExampleScenario.node[100].veinsmobility  speed  ETV
vector 42128  IntersectionExampleScenario.node[100].veinsmobility  acceleration  ETV
vector 42129  IntersectionExampleScenario.node[100].veinsmobility  co2emission  ETV
vector 42134  IntersectionExampleScenario.node[101].veinsmobility  speed  ETV
42017	2577140 5738 28729 39691 211.5 254 171 0.973 11.54047740176 538.96906947063 2758.2394387066
42016	2582878 5593 28729 39691 211.5 254 171 -4.5 2.5 38.680875778198 259.58513718253
42015	2588471 5789 28664 39691 211.25 254 172 5.6500000953674 15.5 2344.0114383698 32875.377197191
42014	2594260 6053 28599 39691 211 254 173 486.85000610352 486.85000610352 84225.051055908 41004966.620638
42013	2600313 6035 28599 39691 211 254 173 236.13049316406 817.24219512939 94267.277160645 56548896.636712
vector 42135  IntersectionExampleScenario.node[101].veinsmobility  acceleration  ETV
vector 42136  IntersectionExampleScenario.node[101].veinsmobility  co2emission  ETV
vector 42139  IntersectionExampleScenario.node[102].veinsmobility  posx  ETV
vector 42140  IntersectionExampleScenario.node[102].veinsmobility  posy  ETV
vector 42141  IntersectionExampleScenario.node[102].veinsmobility  speed  ETV
vector 42142  IntersectionExampleScenario.node[102].veinsmobility  acceleration  ETV
vector 42143  IntersectionExampleScenario.node[102].veinsmobility  co2emission  ETV
42038	2606925 5389 30424 40631 218 257.25 158 0.973 11.648172402475 474.83479235355 2487.8962684845
42037	2612314 5292 30424 40631 218 257.25 158 -3.7068710327148 2.5 38.001859664917 195.47827493115
42036	2617606 5318 30359 40631 217.75 257.25 159 5.6500000953674 15.64999961853 2264.3661174774 32872.021783848
42035	2622924 5600 30294 40631 217.5 257.25 160 486.85000610352 486.85000610352 77896.000976562 37923668.550879
42034	2628524 5581 30294 40631 217.5 257.25 160 236.28363037109 797.20390319824 84250.16746521 48783563.243315
vector 42146  IntersectionExampleScenario.node[103].veinsmobility  posx  ETV
vector 42147  IntersectionExampleScenario.node[103].veinsmobility  posy  ETV
vector 42153  IntersectionExampleScenario.node[104].veinsmobility  posx  ETV
vector 42154  IntersectionExampleScenario.node[104].veinsmobility  posy  ETV
vector 42148  IntersectionExampleScenario.node[103].veinsmobility  speed  ETV
vector 42155  IntersectionExampleScenario.node[104].veinsmobility  speed  ETV
vector 42149  IntersectionExampleScenario.node[103].veinsmobility  acceleration  ETV
vector 42150  IntersectionExampleScenario.node[103].veinsmobility  co2emission  ETV
vector 42156  IntersectionExampleScenario.node[104].veinsmobility  acceleration  ETV
vector 42157  IntersectionExampleScenario.node[104].veinsmobility  co2emission  ETV
vector 42160  IntersectionExampleScenario.node[105].veinsmobility  posx  ETV
vector 42161  IntersectionExampleScenario.node[105].veinsmobility  posy  ETV
vector 42162  IntersectionExampleScenario.node[105].veinsmobility  speed  ETV
vector 42167  IntersectionExampleScenario.node[106].veinsmobility  posx  ETV
vector 42168  IntersectionExampleScenario.node[106].veinsmobility  posy  ETV
vector 42163  IntersectionExampleScenario.node[105].veinsmobility  acceleration  ETV
vector 42164  IntersectionExampleScenario.node[105].veinsmobility  co2emission  ETV
vector 42169  IntersectionExampleScenario.node[106].veinsmobility  speed  ETV
vector 42170  IntersectionExampleScenario.node[106].veinsmobility  acceleration  ETV
vector 42171  IntersectionExampleScenario.node[106].veinsmobility  co2emission  ETV
vector 42174  IntersectionExampleScenario.node[107].veinsmobility  posx  ETV
vector 42175  IntersectionExampleScenario.node[107].veinsmobility  posy  ETV
vector 42181  IntersectionExampleScenario.node[108].veinsmobility  posx  ETV
vector 42182  IntersectionExampleScenario.node[108].veinsmobility  posy  ETV
vector 42176  IntersectionExampleScenario.node[107].veinsmobility  speed  ETV
vector 42183  IntersectionExampleScenario.node[108].veinsmobility  speed  ETV
vector 42177  IntersectionExampleScenario.node[107].veinsmobility  acceleration  ETV
vector 42178  IntersectionExampleScenario.node[107].veinsmobility  co2emission  ETV
vector 42184  IntersectionExampleScenario.node[108].veinsmobility  acceleration  ETV
vector 42185  IntersectionExampleScenario.node[108].veinsmobility  co2emission  ETV
vector 42188  IntersectionExampleScenario.node[109].veinsmobility  posx  ETV
vector 42189  IntersectionExampleScenario.node[109].veinsmobility  posy  ETV
41793	2636697 13288 17892 44360 154 271.25 470 0.973 10.916047529558 800.10257731314 2767.0247065932
41792	2649985 11630 17892 44360 154 271.25 470 -7.8154296875 4 34.267293930054 448.84505795862
41791	2661615 12044 17859 44360 153.75 271.25 471 0 14.625 2179.667781353 28929.234911764
41790	2673659 16512 17826 44360 153.5 271.25 472 486.63604736328 785.82187652588 247771.22080994 132460235.45464
41789	2690171 16452 17826 44360 153.5 271.25 472 235.92425537109 483.14999389648 219246.57778931 103126114.68627
[...]
45878	31929704 12431 292853 308689 1696.5 1780.75 338 184.17810058594 732.50051879883 149375.03234863 70235203.193628
45877	31942135 12507 292853 308689 1696.5 1780.75 338 486.85000610352 486.85003662109 164555.30212402 80113749.873162
45867	31954642 12018 291802 308724 1690.75 1781 362 0.973 11.200708441096 712.12613572421 2685.2945364122
45866	31966660 12976 291802 308724 1690.75 1781 362 -3.92658162117 2.5 37.370931625366 325.61568426494
45865	31979636 12630 291753 308724 1690.5 1781 363 0 15.02499961853 2188.2568809465 26477.514111833
45864	31992266 13415 291706 308724 1690.25 1781 364 184.17810058594 483.23666381836 153607.50930786 66803281.869936
45863	32005681 13465 291706 308724 1690.25 1781 364 486.85000610352 734.31582641602 186049.59089661 96323289.546372
45965	32019146 7343 299601 308759 1727 1781.25 218 0.973 11.54047740176 569.87340275667 2854.3849880622
45964	32026489 7711 299601 308759 1727 1781.25 218 -3.762109041214 2.5 36.98334312439 323.59020272218
45963	32034200 7851 299545 308759 1726.75 1781.25 219 0 15.5 2216.6513981223 28619.273482279
45962	32042051 8116 299488 308759 1726.5 1781.25 220 237.11309814453 785.82187652588 115869.39582062 65261812.805324
45961	32050167 8140 299488 308759 1726.5 1781.25 220 483.14999389648 483.14999389648 106292.99865723 51355461.652478
vector 46094  IntersectionExampleScenario.node[667].veinsmobility  posx  ETV
vector 46095  IntersectionExampleScenario.node[667].veinsmobility  posy  ETV
vector 46101  IntersectionExampleScenario.node[668].veinsmobility  posx  ETV
vector 46102  IntersectionExampleScenario.node[668].veinsmobility  posy  ETV
vector 46096  IntersectionExampleScenario.node[667].veinsmobility  speed  ETV
vector 46097  IntersectionExampleScenario.node[667].veinsmobility  acceleration  ETV
vector 46098  IntersectionExampleScenario.node[667].veinsmobility  co2emission  ETV
vector 46103  IntersectionExampleScenario.node[668].veinsmobility  speed  ETV
vector 46104  IntersectionExampleScenario.node[668].veinsmobility  acceleration  ETV
vector 46105  IntersectionExampleScenario.node[668].veinsmobility  co2emission  ETV
45972	32059119 6706 301259 309232 1735 1784.5 199 0.973 11.36141391502 564.86137246449 3037.8740320728
45971	32065825 6903 301259 309232 1735 1784.5 199 -3.7383041381836 2.5 37.15309715271 385.60503044099
45970	32072728 7081 301210 309232 1734.75 1784.5 200 2.5010306835175 15.25 2186.6274356842 27606.846638271
45969	32079809 7421 301160 309232 1734.5 1784.5 201 486.8420715332 785.82187652588 114292.99868011 66784026.151955
45968	32087230 7426 301160 309232 1734.5 1784.5 201 236.17926025391 483.14999389648 88727.695526123 40194169.277183
45993	32094656 5676 303342 309505 1746.25 1786.25 161 0.973 11.648172402475 512.59763139434 2912.9279783086
45992	32100332 5635 303342 309505 1746.25 1786.25 161 -3.3341903686523 2.5 38.511121749878 291.64135673628
45991	32105967 5677 303297 309505 1746 1786.25 162 5.6500000953674 15.64999961853 2185.7604122162 30809.021710098
45990	32111644 6007 303252 309505 1745.75 1786.25 163 184.17810058594 483.18896484375 64860.289245605 27553490.70387
45989	32117651 6025 303252 309505 1745.75 1786.25 163 486.85000610352 733.67419433594 87571.455444336 47979120.512272
45979	32123676 6512 302204 309700 1740 1787.5 191 0.973 11.200708441096 578.69726817583 2940.7189204959
45978	32130188 6881 302204 309700 1740 1787.5 191 -4.5 2.5 39.02854347229 366.18927792334
45977	32137069 7080 302156 309700 1739.75 1787.5 192 3.3726816177368 15.526247024536 2213.0434741974 28557.198767553
45976	32144149 7124 302109 309700 1739.5 1787.5 193 483.14999389648 785.82187652588 109196.60530853 63625741.673051
45975	32151273 7127 302109 309700 1739.5 1787.5 193 483.14999389648 733.95957946777 101834.05473328 54763772.689878
45986	32158400 6544 302301 309778 1740.5 1788 191 0.973 11.36141391502 562.46476934701 2941.6657049625
45985	32164944 6468 302301 309778 1740.5 1788 191 -4.5 2.5 38.680875778198 325.09595494186
45984	32171412 6789 302253 309778 1740.25 1788 192 5.6500000953674 15.345789909363 2269.6860442162 29298.207539583
45983	32178201 7125 302204 309778 1740 1788 193 486.85000610352 809.56562805176 112039.4174881 67196997.457318
45982	32185326 7135 302204 309778 1740 1788 193 238.8740234375 483.14999389648 85227.325195312 38603162.705515
vector 46108  IntersectionExampleScenario.node[669].veinsmobility  posx  ETV
vector 46109  IntersectionExampleScenario.node[669].veinsmobility  posy  ETV
vector 46110  IntersectionExampleScenario.node[669].veinsmobility  speed  ETV
vector 46115  IntersectionExampleScenario.node[670].veinsmobility  posx  ETV
vector 46116  IntersectionExampleScenario.node[670].veinsmobility  posy  ETV
vector 46111  IntersectionExampleScenario.node[669].veinsmobility  acceleration  ETV
vector 46112  IntersectionExampleScenario.node[669].veinsmobility  co2emission  ETV
vector 46117  IntersectionExampleScenario.node[670].veinsmobility  speed  ETV
vector 46118  IntersectionExampleScenario.node[670].veinsmobility  acceleration  ETV
vector 46119  IntersectionExampleScenario.node[670].veinsmobility  co2emission  ETV
vector 46122  IntersectionExampleScenario.node[671].veinsmobility  posx  ETV
vector 46123  IntersectionExampleScenario.node[671].veinsmobility  posy  ETV
vector 46124  IntersectionExampleScenario.node[671].veinsmobility  speed  ETV
vector 46125  IntersectionExampleScenario.node[671].veinsmobility  acceleration  ETV
vector 46126  IntersectionExampleScenario.node[671].veinsmobility  co2emission  ETV
46021	32193679 5558 305110 310955 1756.25 1795 156 0.97223939240464 11.76623297479 494.69027497489 2829.5159955373
46020	32199237 5307 305110 310955 1756.25 1795 156 -4.0879096984863 2.5 38.680875778198 257.02873605493
46019	32204544 5516 305065 310955 1756 1795 157 5.6500000953674 15.814125061035 2203.6657114029 31863.750299907
46018	32210060 5838 305020 310955 1755.75 1795 158 482.96157836914 785.82187652588 90411.7891922 53501895.547566
46017	32215898 5839 305020 310955 1755.75 1795 158 483.14999389648 732.71208190918 84671.289901733 46320848.719924
46014	32221737 5746 304977 310955 1755.5 1795 159 0.973 11.450879080643 484.52164628069 2515.8030270436
46013	32227483 5546 304977 310955 1755.5 1795 159 -3.7030715942383 2.5 37.32285118103 232.01343872567
46012	32233029 5634 304933 310955 1755.25 1795 160 5.6500000953674 15.375 2207.6789159775 31315.567974142
46011	32238663 5921 304888 310955 1755 1795 161 184.17810058594 486.85000610352 64100.158630371 27312844.342096
46010	32244584 5951 304888 310955 1755 1795 161 236.87487792969 486.85000610352 69843.023529053 31268304.848806
vector 46129  IntersectionExampleScenario.node[672].veinsmobility  posx  ETV
vector 46130  IntersectionExampleScenario.node[672].veinsmobility  posy  ETV
vector 46131  IntersectionExampleScenario.node[672].veinsmobility  speed  ETV
vector 46132  IntersectionExampleScenario.node[672].veinsmobility  acceleration  ETV
vector 46133  IntersectionExampleScenario.node[672].veinsmobility  co2emission  ETV
vector 46136  IntersectionExampleScenario.node[673].veinsmobility  posx  ETV
vector 46137  IntersectionExampleScenario.node[673].veinsmobility  posy  ETV
vector 46138  IntersectionExampleScenario.node[673].veinsmobility  speed  ETV
45888	32251176 11969 292951 311833 1697 1800 413 0.973 11.200708441096 607.26985145491 1821.5629734171
45887	32263145 10553 292951 311833 1697 1800 413 -7.5492105484009 4 8.8999996185303 399.67412589898
45886	32273698 10803 292902 311833 1696.75 1800 414 0 15.02499961853 1199.7110660076 15886.287141889
45885	32284501 15354 292853 311833 1696.5 1800 415 483.14999389648 483.14999389648 200507.24746704 96875075.389902
45884	32299855 15324 292853 311833 1696.5 1800 415 184.17810058594 482.77188110352 182615.40917969 82616843.455181
45909	32315179 12003 293630 311833 1700.25 1800 400 0.973 11.200708441096 595.06473805206 1792.8101007168
45908	32327182 11428 293630 311833 1700.25 1800 400 -4.5 2.5 4.8999996185303 353.48107518019
45907	32338610 11333 293575 311833 1700 1800 401 0 15.310606002808 1208.5886538839 16277.138694579
45906	32349943 14873 293520 311833 1699.75 1800 402 483.14999389648 483.21746826172 194226.36502075 93840499.679105
45905	32364816 14589 293520 311833 1699.75 1800 402 172.9296875 473.09201049805 173713.86849976 77375700.373493
45930	32379405 10414 297511 311833 1717.75 1800 330 0.973 10.492454887357 500.72044957452 1507.9280384956
45929	32389819 10866 297511 311833 1717.75 1800 330 -4.5 2.5 -21.219759464264 294.59054121931
45928	32400685 10700 297456 311833 1717.5 1800 331 0 14.970283508301 1070.1000160826 12104.909969977
45927	32411385 12284 297401 311833 1717.25 1800 332 483.14999389648 483.14999389648 160405.79797363 77500060.311921
45926	32423669 12245 297401 311833 1717.25 1800 332 184.17810058594 452.45227050781 136308.66314697 57943160.90637
45937	32435914 10742 297732 311833 1718.75 1800 326 0.973 10.738251633368 501.23363918217 1482.0773916248
45936	32446656 11128 297732 311833 1718.75 1800 326 -4.5 2.5 -22.497021660209 281.39045065014
45935	32457784 10922 297675 311833 1718.5 1800 327 0 14.966501235962 1134.4435306471 12921.977821868
45934	32468706 12136 297620 311833 1718.25 1800 328 483.14999389648 483.14999389648 158473.19799805 76566324.645513
45933	32480842 12110 297620 311833 1718.25 1800 328 162.00311279297 446.02310180664 131164.49377441 54702350.165408
45944	32492952 9922 297791 311833 1719 1800 325 0.973 11.200708441096 475.58533651999 1498.4332881005
45943	32502874 10137 297791 311833 1719 1800 325 -3.8715219497681 2.5 -8.2857122421265 211.6806543342
45942	32513011 10011 297732 311833 1718.75 1800 326 0 15.02499961853 995.29286414851 11667.904337762
45941	32523022 12098 297675 311833 1718.5 1800 327 483.14999389648 483.14999389648 157990.04800415 76332890.728911
45940	32535120 12074 297675 311833 1718.5 1800 327 212.90466308594 460.95022583008 139610.0579834 61010317.090753
46000	32547194 6029 304170 311833 1751 1800 197 0.973 11.200708441096 360.2788854592 1409.8158737087
45999	32553223 5565 304170 311833 1751 1800 197 -7.5428676605225 2.5 -22.60000038147 314.86937316267
45998	32558788 5799 304125 311833 1750.75 1800 198 0 15.02499961853 1146.4485878944 15593.979968867
45997	32564587 7362 304080 311833 1750.5 1800 199 486.85000610352 486.85000610352 96883.1512146 47167562.760155
45996	32571949 7356 304080 311833 1750.5 1800 199 498.39999389648 785.82187652588 112328.93279266 65209669.79447
46007	32579305 6127 304668 311833 1753.75 1800 186 0.973 11.200708441096 363.87037485865 1459.5936062677
46006	32585432 6389 304668 311833 1753.75 1800 186 -4.5 2.5 -22.60000038147 286.17999257176
46005	32591821 6292 304622 311833 1753.5 1800 187 0 15.382204055786 1179.9690214097 16346.529769859
46004	32598113 6956 304575 311833 1753.25 1800 188 486.85000610352 486.85000610352 91527.801147461 44560310.547283
46003	32605069 6936 304575 311833 1753.25 1800 188 504.79928588867 800.04531860352 108439.94940948 64397849.773729
46028	32612005 5376 305611 311833 1759.25 1800 164 0.973 12.099024792222 328.52252781184 1588.5918015116
46027	32617381 6084 305611 311833 1759.25 1800 164 -3.7652599811554 2.5 -22.426174938679 205.36544698281
46026	32623465 6060 305570 311833 1759 1800 165 0 16.27499961853 1020.7514753938 12763.07864476
46025	32629525 6141 305529 311833 1758.75 1800 166 483.14999389648 483.14999389648 80202.898986816 38750030.155961
46024	32635666 6109 305529 311833 1758.75 1800 166 184.17810058594 439.53997802734 62190.358154297 24472124.336146
46035	32641775 4905 305938 311833 1761.25 1800 156 0.973 11.200708441096 302.34359814272 1311.1639823148
46034	32646680 5392 305938 311833 1761.25 1800 156 -4.5 2.5 -22.60000038147 262.12122572656
46033	32652072 5325 305897 311833 1761 1800 157 0 15.02499961853 1061.1537467837 13226.71607032
46032	32657397 5845 305856 311833 1760.75 1800 158 483.14999389648 483.14999389648 76337.699035645 36882558.823143
46031	32663242 5786 305856 311833 1760.75 1800 158 166.078125 431.54592895508 56419.736053467 21420264.35076
46042	32669028 4413 306356 311833 1764 1800 145 0.973 11.200708441096 281.4625430313 1272.4968948664
46041	32673441 4973 306356 311833 1764 1800 145 -3.5 2.5 -22.60000038147 174.39277868323
46040	32678414 4989 306319 311833 1763.75 1800 146 0 15.02499961853 1051.1579738259 12490.401325999
46039	32683403 5438 306282 311833 1763.5 1800 147 483.14999389648 483.14999389648 71023.049102783 34314785.740519
46038	32688841 5422 306282 311833 1763.5 1800 147 160.90466308594 424.04550170898 50513.765777588 18527314.467575
46049	32694263 4507 306737 311833 1766.75 1800 134 0.973 11.200708441096 293.06335292453 1329.6288908361
46048	32698770 4971 306737 311833 1766.75 1800 134 -4.5 2.5 -22.598431999562 247.16189984092
46047	32703741 5031 306702 311833 1766.5 1800 135 0.00039209547685459 15.02499961853 1036.1608962755 12622.304028695
46046	32708772 5032 306667 311833 1766.25 1800 136 483.14999389648 483.14999389648 65708.399169922 31747012.657895
46045	32713804 5008 306667 311833 1766.25 1800 136 158.31793212891 418.04504394531 45509.775909424 16298451.292083
46056	32718812 4189 307012 311833 1768.75 1800 126 0.93473086920826 11.439420278533 316.80391873341 1544.8655930384
46055	32723001 4420 307012 311833 1768.75 1800 126 -4.5 2.5 -22.60000038147 315.32660211515
46054	32727421 4650 306977 311833 1768.5 1800 127 0 16.283576965332 1032.3077028943 12912.853651723
46053	32732071 4736 306942 311833 1768.25 1800 128 483.14999389648 483.14999389648 61843.19921875 29879541.325078
46052	32736807 4719 306942 311833 1768.25 1800 128 153.14801025391 411.6149597168 41673.277923584 14571228.358044
46063	32741526 3841 307220 311833 1770.25 1800 120 0.973 11.648172402475 278.32311952142 1418.5855791849
46062	32745367 4439 307220 311833 1770.25 1800 120 -3.926308631897 2.5 -21.637584626675 192.21937143609
46061	32749806 4453 307186 311833 1770 1800 121 0 15.64999961853 1092.6196395569 13725.998431383
46060	32754259 4513 307151 311833 1769.75 1800 122 486.85000610352 486.85000610352 59395.700744629 28916797.270045
46059	32758772 4503 307151 311833 1769.75 1800 122 512.60531616211 785.82187652588 74732.524147034 46843358.986483
46070	32763275 4019 307483 311833 1772.25 1800 112 0.973 11.990504229548 392.30022996863 2417.4728088164
46069	32767294 3604 307483 311833 1772.25 1800 112 -3.0983085632324 2.5 39.739789962769 198.7410107592
46068	32770898 3931 307450 311833 1772 1800 113 5.6500000953674 16.125 1600.7458982468 23332.033278433
46067	32774829 4184 307417 311833 1771.75 1800 114 184.17810058594 579.05731201172 42749.150787354 17674276.093387
46066	32779013 4217 307417 311833 1771.75 1800 114 486.85000610352 486.85000610352 55500.900695801 27020613.842501
46077	32783230 3610 307850 311833 1775 1800 101 0.973 11.648172402475 343.6775127057 1957.217584084
46076	32786840 3089 307850 311833 1775 1800 101 -3.2733688354492 2.5 28.89999961853 214.33672572516
46075	32789929 3534 307815 311833 1774.75 1800 102 5.6500000953674 15.64999961853 1377.8510065079 19484.149353763
46074	32793463 3786 307780 311833 1774.5 1800 103 169.95465087891 486.87811279297 34984.577392578 13058409.315986
46073	32797249 3810 307780 311833 1774.5 1800 103 457.46798706055 486.85000610352 49953.95916748 24230470.312046
46084	32801059 3177 307959 311833 1775.75 1800 98 0.973 11.648172402475 251.69895062845 1382.9081754682
46083	32804236 3618 307959 311833 1775.75 1800 98 -3.4355239868164 2.5 -11.87003326416 192.33784620251
46082	32807854 3645 307922 311833 1775.5 1800 99 2.6824917793274 15.64999961853 1032.2321696281 13031.261713018
46081	32811499 3700 307885 311833 1775.25 1800 100 486.85000610352 486.85000610352 48685.000610352 23702292.844299
46080	32815199 3693 307885 311833 1775.25 1800 100 528.21981811523 785.82187652588 63689.835639954 41313275.002544
46091	32818892 3052 308370 311833 1778.5 1800 87 0.97223939240464 11.648172402475 264.29320907895 1445.4571331559
46090	32821944 3005 308370 311833 1778.5 1800 87 -7.5024490356445 2.5 -22.60000038147 370.92286895696
46089	32824949 3212 308331 311833 1778.25 1800 88 0 15.64999961853 1147.4476413727 16341.488719883
46088	32828161 3287 308292 311833 1778 1800 89 498.39999389648 785.82187652588 57123.111244202 37444483.693379
46087	32831448 3291 308292 311833 1778 1800 89 483.14999389648 483.14999389648 43000.349456787 20775618.577593
46098	32834739 2146 309115 311833 1783.75 1800 66 0.973 11.200708441096 196.18153970492 1174.4638030407
46097	32836885 2367 309115 311833 1783.75 1800 66 -2.2317047119141 2.5 14.937562942505 116.82170943388
46096	32839252 2465 309076 311833 1783.5 1800 67 5.6500000953674 15.02499961853 853.64737701416 11293.969142366
46095	32841717 2516 309039 311833 1783.25 1800 68 486.85000610352 486.85000610352 33105.800415039 16117559.134124
46094	32844233 2513 309039 311833 1783.25 1800 68 575.41146850586 785.82187652588 46528.670265198 32145174.968846
46105	32846746 2089 309154 311833 1784 1800 65 0.973 11.648172402475 199.02621871577 1286.5582335349
46104	32848835 2313 309154 311833 1784 1800 65 -1.7196922302246 2.5 0.2007942199707 150.66677091943
46103	32851148 2430 309115 311833 1783.75 1800 66 5.6500000953674 15.64999961853 770.22860574722 9752.3934872817
46102	32853578 2478 309076 311833 1783.5 1800 67 483.14999389648 483.14999389648 32371.049591064 15640072.412346
46101	32856056 2450 309076 311833 1783.5 1800 67 184.17810058594 375.0539855957 18903.673797607 5601370.8555296
46112	32858506 1363 310250 311833 1791 1800 37 0.97223939240464 11.648172402475 175.26481318741 1271.1787027975
46111	32859869 1252 310250 311833 1791 1800 37 -0.32978057861328 2.5 38.684003829956 100.24857468304
46110	32861121 1392 310209 311833 1790.75 1800 38 5.6500000953674 15.64999961853 503.76155185699 7046.8293352203
46109	32862513 1423 310168 311833 1790.5 1800 39 184.17810058594 304.97735595703 9202.0550537109 2228274.2344963
46108	32863936 1442 310168 311833 1790.5 1800 39 486.85000610352 486.85000610352 18987.150238037 9243894.2092767
46119	32865378 1201 310336 311833 1791.5 1800 35 0.973 11.648172402475 161.63321066219 1234.5697003189
46118	32866579 1146 310336 311833 1791.5 1800 35 -2.4892272949219 2.5 26.374086380005 125.43024708862
46117	32867725 1321 310293 311833 1791.25 1800 36 5.6500000953674 15.697189331055 464.19184589386 6328.5033399925
46116	32869046 1367 310250 311833 1791 1800 37 483.14999389648 483.14999389648 17876.54977417 8637054.9142804
46115	32870413 1349 310250 311833 1791 1800 37 184.17810058594 296.20642089844 8599.1630249023 2046182.8520417
46126	32871762 1074 310555 311833 1792.75 1800 30 0.973 12.099024792222 179.22405874555 1430.063294067
46125	32872836 919 310555 311833 1792.75 1800 30 -2.067626953125 2.5 38.520524978638 118.05080718715
46124	32873755 1135 310510 311833 1792.5 1800 31 5.6500000953674 16.343198776245 405.99306678772 5702.9317494683
46123	32874890 1184 310465 311833 1792.25 1800 32 483.14999389648 483.14999389648 15460.799804688 7469885.3312695
46122	32876074 1172 310465 311833 1792.25 1800 32 162.90466308594 259.26513671875 6482.967590332 1343094.7733701
46133	32877246 476 311303 311833 1797 1800 13 5.2162187258585 10.315404520939 100.64515864481 812.01557512667
46132	32877722 335 311303 311833 1797 1800 13 2.4999980926514 2.5 32.499998092651 81.24999046326
46131	32878057 510 311258 311833 1796.75 1800 14 5.6500000953674 13.77499961853 135.97499656677 1409.5242963886
46130	32878567 554 311213 311833 1796.5 1800 15 486.85000610352 486.85000610352 7302.7500915527 3555343.9266449
46129	32879121 554 311213 311833 1796.5 1800 15 756.28750610352 785.82187652588 11609.025123596 8985974.340013
46138	32879675 35 311833 311833 1800 1800 1 5.6500000953674 5.6500000953674 5.6500000953674 31.922501077652
46137	32879710 73 311787 311833 1799.75 1800 2 486.85000610352 486.85000610352 973.70001220703 474045.85688599
46136	32879783 73 311787 311833 1799.75 1800 2 797.07032012939 797.07032012939 1594.1406402588 1270642.1904624
41421	32879856 645 0 311832 0 1800 31 0 38 817 23065
41422	32880501 665 0 311832 0 1800 31 0 340 5091 1163449
