version 2
run nodebug-25-20200605-17:15:52-20012
attr configname nodebug
attr datetime 20200605-17:15:52
attr experiment nodebug
attr inifile omnetpp.ini
attr iterationvars ""
attr iterationvars2 $repetition=25
attr measurement ""
attr network "\"org.car2x.veins.modules.application.ExtTraCIScenarioManagerLaunchd.IntersectionExampleScenario\""
attr processid 20012
attr repetition 25
attr replication #25
attr resultdir results
attr runnumber 25
attr seedset 25
param **.coreDebug false
param **.debug false
param *.**.nic.mac1609_4.bitrate 18Mbps
param *.**.nic.mac1609_4.txPower 20mW
param *.**.nic.mac1609_4.useServiceChannel false
param *.**.nic.phy80211p.analogueModels "xmldoc(\"config.xml\")"
param *.**.nic.phy80211p.decider "xmldoc(\"config.xml\")"
param *.**.nic.phy80211p.sensitivity -89dBm
param *.**.nic.phy80211p.thermalNoise -110dBm
param *.**.nic.phy80211p.usePropagationDelay true
param *.**.nic.phy80211p.useThermalNoise true
param *.annotations.draw false
param *.connectionManager.alpha 2.0
param *.connectionManager.carrierFrequency "5.890e9 Hz"
param *.connectionManager.pMax 20mW
param *.connectionManager.sat -89dBm
param *.connectionManager.sendDirect true
param *.manager.autoShutdown true
param *.manager.host "\"localhost\""
param *.manager.launchConfig "xmldoc(\"paramics.launchd.xml\")"
param *.manager.margin 25
param *.manager.moduleDisplayString "\"\""
param *.manager.moduleName "\"node\""
param *.manager.moduleType "\"org.car2x.veins.nodes.Car\""
param *.manager.port 9999
param *.manager.updateInterval 250ms
param *.node[*0].veinsmobility.accidentCount 0
param *.node[*0].veinsmobility.accidentDuration 30s
param *.node[*0].veinsmobility.accidentStart 75s
param *.node[*].appl.LiderSelectZoneRadio 55.0
param *.node[*].appl.ShareDataZoneRadio 110.0
param *.node[*].appl.TiempoSemaforo 30.0
param *.node[*].appl.beaconInterval 1s
param *.node[*].appl.beaconPriority 3
param *.node[*].appl.dataOnSch false
param *.node[*].appl.dataPriority 2
param *.node[*].appl.debug false
param *.node[*].appl.headerLength "256 bit"
param *.node[*].appl.maxOffset 0.005s
param *.node[*].appl.sendBeacons false
param *.node[*].appl.sendData true
param *.node[*].applType "\"Dummy\""
param *.node[*].mobilityType "\"TraCIMobility\""
param *.node[*].mobilityType.debug true
param *.node[*].veinsmobility.x 0
param *.node[*].veinsmobility.y 0
param *.node[*].veinsmobility.z 1.895
param *.node[*].veinsmobilityType "\"org.car2x.veins.modules.mobility.traci.TraCIMobility\""
param *.node[*].veinsmobilityType.debug true
param *.playgroundSizeX 8500m
param *.playgroundSizeY 8500m
param *.playgroundSizeZ 50m
param *.world.use2D false
param *.world.useTorus false

scalar IntersectionExampleScenario.node[2].appl 	VehicleRemoved 	0
scalar IntersectionExampleScenario.node[2].appl 	ArrivedAtDest 	1
scalar IntersectionExampleScenario.node[2].appl 	IntersectionEnterTime 	3
scalar IntersectionExampleScenario.node[2].appl 	IntersectionExitTime 	25.514130088268
scalar IntersectionExampleScenario.node[2].appl 	NumberOfCollisions 	0
scalar IntersectionExampleScenario.node[2].nic.phy80211p 	busyTime 	0
scalar IntersectionExampleScenario.node[2].nic.mac1609_4 	ReceivedUnicastPackets 	0
scalar IntersectionExampleScenario.node[2].nic.mac1609_4 	ReceivedBroadcasts 	0
scalar IntersectionExampleScenario.node[2].nic.mac1609_4 	SentPackets 	0
scalar IntersectionExampleScenario.node[2].nic.mac1609_4 	SNIRLostPackets 	0
scalar IntersectionExampleScenario.node[2].nic.mac1609_4 	RXTXLostPackets 	0
scalar IntersectionExampleScenario.node[2].nic.mac1609_4 	TotalLostPackets 	0
scalar IntersectionExampleScenario.node[2].nic.mac1609_4 	DroppedPacketsInMac 	0
scalar IntersectionExampleScenario.node[2].nic.mac1609_4 	TooLittleTime 	0
scalar IntersectionExampleScenario.node[2].nic.mac1609_4 	TimesIntoBackoff 	0
scalar IntersectionExampleScenario.node[2].nic.mac1609_4 	SlotsBackoff 	0
scalar IntersectionExampleScenario.node[2].nic.mac1609_4 	NumInternalContention 	0
scalar IntersectionExampleScenario.node[2].nic.mac1609_4 	totalBusyTime 	0
scalar IntersectionExampleScenario.node[2].veinsmobility 	startTime 	3
scalar IntersectionExampleScenario.node[2].veinsmobility 	totalTime 	38
scalar IntersectionExampleScenario.node[2].veinsmobility 	stopTime 	41.25
scalar IntersectionExampleScenario.node[2].veinsmobility 	minSpeed 	5.6500000953674
scalar IntersectionExampleScenario.node[2].veinsmobility 	maxSpeed 	16.125
scalar IntersectionExampleScenario.node[2].veinsmobility 	totalDistance 	551.6651763916
scalar IntersectionExampleScenario.node[2].veinsmobility 	totalCO2Emission 	119.99297835631
scalar IntersectionExampleScenario.node[1].appl 	VehicleRemoved 	0
scalar IntersectionExampleScenario.node[1].appl 	ArrivedAtDest 	1
scalar IntersectionExampleScenario.node[1].appl 	IntersectionEnterTime 	1.75
scalar IntersectionExampleScenario.node[1].appl 	IntersectionExitTime 	25.554701383022
scalar IntersectionExampleScenario.node[1].appl 	NumberOfCollisions 	0
scalar IntersectionExampleScenario.node[1].nic.phy80211p 	busyTime 	0
scalar IntersectionExampleScenario.node[1].nic.mac1609_4 	ReceivedUnicastPackets 	0
scalar IntersectionExampleScenario.node[1].nic.mac1609_4 	ReceivedBroadcasts 	0
scalar IntersectionExampleScenario.node[1].nic.mac1609_4 	SentPackets 	0
scalar IntersectionExampleScenario.node[1].nic.mac1609_4 	SNIRLostPackets 	0
scalar IntersectionExampleScenario.node[1].nic.mac1609_4 	RXTXLostPackets 	0
scalar IntersectionExampleScenario.node[1].nic.mac1609_4 	TotalLostPackets 	0
scalar IntersectionExampleScenario.node[1].nic.mac1609_4 	DroppedPacketsInMac 	0
scalar IntersectionExampleScenario.node[1].nic.mac1609_4 	TooLittleTime 	0
scalar IntersectionExampleScenario.node[1].nic.mac1609_4 	TimesIntoBackoff 	0
scalar IntersectionExampleScenario.node[1].nic.mac1609_4 	SlotsBackoff 	0
scalar IntersectionExampleScenario.node[1].nic.mac1609_4 	NumInternalContention 	0
scalar IntersectionExampleScenario.node[1].nic.mac1609_4 	totalBusyTime 	0
scalar IntersectionExampleScenario.node[1].veinsmobility 	startTime 	1.75
scalar IntersectionExampleScenario.node[1].veinsmobility 	totalTime 	40.75
scalar IntersectionExampleScenario.node[1].veinsmobility 	stopTime 	42.75
scalar IntersectionExampleScenario.node[1].veinsmobility 	minSpeed 	5.6500000953674
scalar IntersectionExampleScenario.node[1].veinsmobility 	maxSpeed 	15.25
scalar IntersectionExampleScenario.node[1].veinsmobility 	totalDistance 	544.57391972019
scalar IntersectionExampleScenario.node[1].veinsmobility 	totalCO2Emission 	124.39965242606
scalar IntersectionExampleScenario.node[8].appl 	VehicleRemoved 	0
scalar IntersectionExampleScenario.node[8].appl 	ArrivedAtDest 	1
scalar IntersectionExampleScenario.node[8].appl 	IntersectionEnterTime 	14.25
scalar IntersectionExampleScenario.node[8].appl 	IntersectionExitTime 	38.065727370617
scalar IntersectionExampleScenario.node[8].appl 	NumberOfCollisions 	0
scalar IntersectionExampleScenario.node[8].nic.phy80211p 	busyTime 	0
scalar IntersectionExampleScenario.node[8].nic.mac1609_4 	ReceivedUnicastPackets 	0
scalar IntersectionExampleScenario.node[8].nic.mac1609_4 	ReceivedBroadcasts 	0
scalar IntersectionExampleScenario.node[8].nic.mac1609_4 	SentPackets 	0
scalar IntersectionExampleScenario.node[8].nic.mac1609_4 	SNIRLostPackets 	0
scalar IntersectionExampleScenario.node[8].nic.mac1609_4 	RXTXLostPackets 	0
scalar IntersectionExampleScenario.node[8].nic.mac1609_4 	TotalLostPackets 	0
scalar IntersectionExampleScenario.node[8].nic.mac1609_4 	DroppedPacketsInMac 	0
scalar IntersectionExampleScenario.node[8].nic.mac1609_4 	TooLittleTime 	0
scalar IntersectionExampleScenario.node[8].nic.mac1609_4 	TimesIntoBackoff 	0
scalar IntersectionExampleScenario.node[8].nic.mac1609_4 	SlotsBackoff 	0
scalar IntersectionExampleScenario.node[8].nic.mac1609_4 	NumInternalContention 	0
scalar IntersectionExampleScenario.node[8].nic.mac1609_4 	totalBusyTime 	0
scalar IntersectionExampleScenario.node[8].veinsmobility 	startTime 	14.25
scalar IntersectionExampleScenario.node[8].veinsmobility 	totalTime 	40.75
scalar IntersectionExampleScenario.node[8].veinsmobility 	stopTime 	55.25
scalar IntersectionExampleScenario.node[8].veinsmobility 	minSpeed 	5.6500000953674
scalar IntersectionExampleScenario.node[8].veinsmobility 	maxSpeed 	15.25
scalar IntersectionExampleScenario.node[8].veinsmobility 	totalDistance 	545.97984025345
scalar IntersectionExampleScenario.node[8].veinsmobility 	totalCO2Emission 	124.9411878982
scalar IntersectionExampleScenario.node[9].appl 	VehicleRemoved 	0
scalar IntersectionExampleScenario.node[9].appl 	ArrivedAtDest 	1
scalar IntersectionExampleScenario.node[9].appl 	IntersectionEnterTime 	21.5
scalar IntersectionExampleScenario.node[9].appl 	IntersectionExitTime 	45.102961805795
scalar IntersectionExampleScenario.node[9].appl 	NumberOfCollisions 	0
scalar IntersectionExampleScenario.node[9].nic.phy80211p 	busyTime 	0
scalar IntersectionExampleScenario.node[9].nic.mac1609_4 	ReceivedUnicastPackets 	0
scalar IntersectionExampleScenario.node[9].nic.mac1609_4 	ReceivedBroadcasts 	0
scalar IntersectionExampleScenario.node[9].nic.mac1609_4 	SentPackets 	0
scalar IntersectionExampleScenario.node[9].nic.mac1609_4 	SNIRLostPackets 	0
scalar IntersectionExampleScenario.node[9].nic.mac1609_4 	RXTXLostPackets 	0
scalar IntersectionExampleScenario.node[9].nic.mac1609_4 	TotalLostPackets 	0
scalar IntersectionExampleScenario.node[9].nic.mac1609_4 	DroppedPacketsInMac 	0
scalar IntersectionExampleScenario.node[9].nic.mac1609_4 	TooLittleTime 	0
scalar IntersectionExampleScenario.node[9].nic.mac1609_4 	TimesIntoBackoff 	0
scalar IntersectionExampleScenario.node[9].nic.mac1609_4 	SlotsBackoff 	0
scalar IntersectionExampleScenario.node[9].nic.mac1609_4 	NumInternalContention 	0
scalar IntersectionExampleScenario.node[9].nic.mac1609_4 	totalBusyTime 	0
scalar IntersectionExampleScenario.node[9].veinsmobility 	startTime 	21.5
scalar IntersectionExampleScenario.node[9].veinsmobility 	totalTime 	40
scalar IntersectionExampleScenario.node[9].veinsmobility 	stopTime 	61.75
scalar IntersectionExampleScenario.node[9].veinsmobility 	minSpeed 	5.6500000953674
scalar IntersectionExampleScenario.node[9].veinsmobility 	maxSpeed 	15.375
scalar IntersectionExampleScenario.node[9].veinsmobility 	totalDistance 	550.87932855373
scalar IntersectionExampleScenario.node[9].veinsmobility 	totalCO2Emission 	121.213193859
scalar IntersectionExampleScenario.node[10].appl 	VehicleRemoved 	0
scalar IntersectionExampleScenario.node[10].appl 	ArrivedAtDest 	1
scalar IntersectionExampleScenario.node[10].appl 	IntersectionEnterTime 	22
scalar IntersectionExampleScenario.node[10].appl 	IntersectionExitTime 	46.563862850831
scalar IntersectionExampleScenario.node[10].appl 	NumberOfCollisions 	0
scalar IntersectionExampleScenario.node[10].nic.phy80211p 	busyTime 	0
scalar IntersectionExampleScenario.node[10].nic.mac1609_4 	ReceivedUnicastPackets 	0
scalar IntersectionExampleScenario.node[10].nic.mac1609_4 	ReceivedBroadcasts 	0
scalar IntersectionExampleScenario.node[10].nic.mac1609_4 	SentPackets 	0
scalar IntersectionExampleScenario.node[10].nic.mac1609_4 	SNIRLostPackets 	0
scalar IntersectionExampleScenario.node[10].nic.mac1609_4 	RXTXLostPackets 	0
scalar IntersectionExampleScenario.node[10].nic.mac1609_4 	TotalLostPackets 	0
scalar IntersectionExampleScenario.node[10].nic.mac1609_4 	DroppedPacketsInMac 	0
scalar IntersectionExampleScenario.node[10].nic.mac1609_4 	TooLittleTime 	0
scalar IntersectionExampleScenario.node[10].nic.mac1609_4 	TimesIntoBackoff 	0
scalar IntersectionExampleScenario.node[10].nic.mac1609_4 	SlotsBackoff 	0
scalar IntersectionExampleScenario.node[10].nic.mac1609_4 	NumInternalContention 	0
scalar IntersectionExampleScenario.node[10].nic.mac1609_4 	totalBusyTime 	0
scalar IntersectionExampleScenario.node[10].veinsmobility 	startTime 	22
scalar IntersectionExampleScenario.node[10].veinsmobility 	totalTime 	40
scalar IntersectionExampleScenario.node[10].veinsmobility 	stopTime 	62.25
scalar IntersectionExampleScenario.node[10].veinsmobility 	minSpeed 	5.6500000953674
scalar IntersectionExampleScenario.node[10].veinsmobility 	maxSpeed 	16.125
scalar IntersectionExampleScenario.node[10].veinsmobility 	totalDistance 	576.04927062988
scalar IntersectionExampleScenario.node[10].veinsmobility 	totalCO2Emission 	128.20772583438
scalar IntersectionExampleScenario.node[0].appl 	VehicleRemoved 	0
scalar IntersectionExampleScenario.node[0].appl 	ArrivedAtDest 	1
scalar IntersectionExampleScenario.node[0].appl 	IntersectionEnterTime 	1.5
scalar IntersectionExampleScenario.node[0].appl 	IntersectionExitTime 	50.523238904745
scalar IntersectionExampleScenario.node[0].appl 	NumberOfCollisions 	0
scalar IntersectionExampleScenario.node[0].nic.phy80211p 	busyTime 	0
scalar IntersectionExampleScenario.node[0].nic.mac1609_4 	ReceivedUnicastPackets 	0
scalar IntersectionExampleScenario.node[0].nic.mac1609_4 	ReceivedBroadcasts 	0
scalar IntersectionExampleScenario.node[0].nic.mac1609_4 	SentPackets 	0
scalar IntersectionExampleScenario.node[0].nic.mac1609_4 	SNIRLostPackets 	0
scalar IntersectionExampleScenario.node[0].nic.mac1609_4 	RXTXLostPackets 	0
scalar IntersectionExampleScenario.node[0].nic.mac1609_4 	TotalLostPackets 	0
scalar IntersectionExampleScenario.node[0].nic.mac1609_4 	DroppedPacketsInMac 	0
scalar IntersectionExampleScenario.node[0].nic.mac1609_4 	TooLittleTime 	0
scalar IntersectionExampleScenario.node[0].nic.mac1609_4 	TimesIntoBackoff 	0
scalar IntersectionExampleScenario.node[0].nic.mac1609_4 	SlotsBackoff 	0
scalar IntersectionExampleScenario.node[0].nic.mac1609_4 	NumInternalContention 	0
scalar IntersectionExampleScenario.node[0].nic.mac1609_4 	totalBusyTime 	0
scalar IntersectionExampleScenario.node[0].veinsmobility 	startTime 	1.5
scalar IntersectionExampleScenario.node[0].veinsmobility 	totalTime 	66.25
scalar IntersectionExampleScenario.node[0].veinsmobility 	stopTime 	68
scalar IntersectionExampleScenario.node[0].veinsmobility 	minSpeed 	0
scalar IntersectionExampleScenario.node[0].veinsmobility 	maxSpeed 	15.25
scalar IntersectionExampleScenario.node[0].veinsmobility 	totalDistance 	544.91893674285
scalar IntersectionExampleScenario.node[0].veinsmobility 	totalCO2Emission 	153.5931924346
scalar IntersectionExampleScenario.node[3].appl 	VehicleRemoved 	0
scalar IntersectionExampleScenario.node[3].appl 	ArrivedAtDest 	1
scalar IntersectionExampleScenario.node[3].appl 	IntersectionEnterTime 	6.75
scalar IntersectionExampleScenario.node[3].appl 	IntersectionExitTime 	53.315089848795
scalar IntersectionExampleScenario.node[3].appl 	NumberOfCollisions 	0
scalar IntersectionExampleScenario.node[3].nic.phy80211p 	busyTime 	0
scalar IntersectionExampleScenario.node[3].nic.mac1609_4 	ReceivedUnicastPackets 	0
scalar IntersectionExampleScenario.node[3].nic.mac1609_4 	ReceivedBroadcasts 	0
scalar IntersectionExampleScenario.node[3].nic.mac1609_4 	SentPackets 	0
scalar IntersectionExampleScenario.node[3].nic.mac1609_4 	SNIRLostPackets 	0
scalar IntersectionExampleScenario.node[3].nic.mac1609_4 	RXTXLostPackets 	0
scalar IntersectionExampleScenario.node[3].nic.mac1609_4 	TotalLostPackets 	0
scalar IntersectionExampleScenario.node[3].nic.mac1609_4 	DroppedPacketsInMac 	0
scalar IntersectionExampleScenario.node[3].nic.mac1609_4 	TooLittleTime 	0
scalar IntersectionExampleScenario.node[3].nic.mac1609_4 	TimesIntoBackoff 	0
scalar IntersectionExampleScenario.node[3].nic.mac1609_4 	SlotsBackoff 	0
scalar IntersectionExampleScenario.node[3].nic.mac1609_4 	NumInternalContention 	0
scalar IntersectionExampleScenario.node[3].nic.mac1609_4 	totalBusyTime 	0
scalar IntersectionExampleScenario.node[3].veinsmobility 	startTime 	6.75
scalar IntersectionExampleScenario.node[3].veinsmobility 	totalTime 	62.75
scalar IntersectionExampleScenario.node[3].veinsmobility 	stopTime 	69.75
scalar IntersectionExampleScenario.node[3].veinsmobility 	minSpeed 	0
scalar IntersectionExampleScenario.node[3].veinsmobility 	maxSpeed 	15.893953323364
scalar IntersectionExampleScenario.node[3].veinsmobility 	totalDistance 	545.1260209376
scalar IntersectionExampleScenario.node[3].veinsmobility 	totalCO2Emission 	158.87773326299
scalar IntersectionExampleScenario.node[4].appl 	VehicleRemoved 	0
scalar IntersectionExampleScenario.node[4].appl 	ArrivedAtDest 	1
scalar IntersectionExampleScenario.node[4].appl 	IntersectionEnterTime 	7.25
scalar IntersectionExampleScenario.node[4].appl 	IntersectionExitTime 	55.854546813905
scalar IntersectionExampleScenario.node[4].appl 	NumberOfCollisions 	0
scalar IntersectionExampleScenario.node[4].nic.phy80211p 	busyTime 	0
scalar IntersectionExampleScenario.node[4].nic.mac1609_4 	ReceivedUnicastPackets 	0
scalar IntersectionExampleScenario.node[4].nic.mac1609_4 	ReceivedBroadcasts 	0
scalar IntersectionExampleScenario.node[4].nic.mac1609_4 	SentPackets 	0
scalar IntersectionExampleScenario.node[4].nic.mac1609_4 	SNIRLostPackets 	0
scalar IntersectionExampleScenario.node[4].nic.mac1609_4 	RXTXLostPackets 	0
scalar IntersectionExampleScenario.node[4].nic.mac1609_4 	TotalLostPackets 	0
scalar IntersectionExampleScenario.node[4].nic.mac1609_4 	DroppedPacketsInMac 	0
scalar IntersectionExampleScenario.node[4].nic.mac1609_4 	TooLittleTime 	0
scalar IntersectionExampleScenario.node[4].nic.mac1609_4 	TimesIntoBackoff 	0
scalar IntersectionExampleScenario.node[4].nic.mac1609_4 	SlotsBackoff 	0
scalar IntersectionExampleScenario.node[4].nic.mac1609_4 	NumInternalContention 	0
scalar IntersectionExampleScenario.node[4].nic.mac1609_4 	totalBusyTime 	0
scalar IntersectionExampleScenario.node[4].veinsmobility 	startTime 	7.25
scalar IntersectionExampleScenario.node[4].veinsmobility 	totalTime 	64.75
scalar IntersectionExampleScenario.node[4].veinsmobility 	stopTime 	72.25
scalar IntersectionExampleScenario.node[4].veinsmobility 	minSpeed 	0
scalar IntersectionExampleScenario.node[4].veinsmobility 	maxSpeed 	15.875
scalar IntersectionExampleScenario.node[4].veinsmobility 	totalDistance 	567.10238305574
scalar IntersectionExampleScenario.node[4].veinsmobility 	totalCO2Emission 	160.83155277411
scalar IntersectionExampleScenario.node[12].appl 	VehicleRemoved 	0
scalar IntersectionExampleScenario.node[12].appl 	ArrivedAtDest 	1
scalar IntersectionExampleScenario.node[12].appl 	IntersectionEnterTime 	23.5
scalar IntersectionExampleScenario.node[12].appl 	IntersectionExitTime 	58.107459427876
scalar IntersectionExampleScenario.node[12].appl 	NumberOfCollisions 	0
scalar IntersectionExampleScenario.node[12].nic.phy80211p 	busyTime 	0
scalar IntersectionExampleScenario.node[12].nic.mac1609_4 	ReceivedUnicastPackets 	0
scalar IntersectionExampleScenario.node[12].nic.mac1609_4 	ReceivedBroadcasts 	0
scalar IntersectionExampleScenario.node[12].nic.mac1609_4 	SentPackets 	0
scalar IntersectionExampleScenario.node[12].nic.mac1609_4 	SNIRLostPackets 	0
scalar IntersectionExampleScenario.node[12].nic.mac1609_4 	RXTXLostPackets 	0
scalar IntersectionExampleScenario.node[12].nic.mac1609_4 	TotalLostPackets 	0
scalar IntersectionExampleScenario.node[12].nic.mac1609_4 	DroppedPacketsInMac 	0
scalar IntersectionExampleScenario.node[12].nic.mac1609_4 	TooLittleTime 	0
scalar IntersectionExampleScenario.node[12].nic.mac1609_4 	TimesIntoBackoff 	0
scalar IntersectionExampleScenario.node[12].nic.mac1609_4 	SlotsBackoff 	0
scalar IntersectionExampleScenario.node[12].nic.mac1609_4 	NumInternalContention 	0
scalar IntersectionExampleScenario.node[12].nic.mac1609_4 	totalBusyTime 	0
scalar IntersectionExampleScenario.node[12].veinsmobility 	startTime 	23.5
scalar IntersectionExampleScenario.node[12].veinsmobility 	totalTime 	51.5
scalar IntersectionExampleScenario.node[12].veinsmobility 	stopTime 	75.25
scalar IntersectionExampleScenario.node[12].veinsmobility 	minSpeed 	1.4173741340637
scalar IntersectionExampleScenario.node[12].veinsmobility 	maxSpeed 	15.25
scalar IntersectionExampleScenario.node[12].veinsmobility 	totalDistance 	545.16167061433
scalar IntersectionExampleScenario.node[12].veinsmobility 	totalCO2Emission 	138.71131458375
scalar IntersectionExampleScenario.node[7].appl 	VehicleRemoved 	0
scalar IntersectionExampleScenario.node[7].appl 	ArrivedAtDest 	1
scalar IntersectionExampleScenario.node[7].appl 	IntersectionEnterTime 	10.5
scalar IntersectionExampleScenario.node[7].appl 	IntersectionExitTime 	87.362534292188
scalar IntersectionExampleScenario.node[7].appl 	NumberOfCollisions 	0
scalar IntersectionExampleScenario.node[7].nic.phy80211p 	busyTime 	0
scalar IntersectionExampleScenario.node[7].nic.mac1609_4 	ReceivedUnicastPackets 	0
scalar IntersectionExampleScenario.node[7].nic.mac1609_4 	ReceivedBroadcasts 	0
scalar IntersectionExampleScenario.node[7].nic.mac1609_4 	SentPackets 	0
scalar IntersectionExampleScenario.node[7].nic.mac1609_4 	SNIRLostPackets 	0
scalar IntersectionExampleScenario.node[7].nic.mac1609_4 	RXTXLostPackets 	0
scalar IntersectionExampleScenario.node[7].nic.mac1609_4 	TotalLostPackets 	0
scalar IntersectionExampleScenario.node[7].nic.mac1609_4 	DroppedPacketsInMac 	0
scalar IntersectionExampleScenario.node[7].nic.mac1609_4 	TooLittleTime 	0
scalar IntersectionExampleScenario.node[7].nic.mac1609_4 	TimesIntoBackoff 	0
scalar IntersectionExampleScenario.node[7].nic.mac1609_4 	SlotsBackoff 	0
scalar IntersectionExampleScenario.node[7].nic.mac1609_4 	NumInternalContention 	0
scalar IntersectionExampleScenario.node[7].nic.mac1609_4 	totalBusyTime 	0
scalar IntersectionExampleScenario.node[7].veinsmobility 	startTime 	10.5
scalar IntersectionExampleScenario.node[7].veinsmobility 	totalTime 	93.25
scalar IntersectionExampleScenario.node[7].veinsmobility 	stopTime 	104
scalar IntersectionExampleScenario.node[7].veinsmobility 	minSpeed 	0
scalar IntersectionExampleScenario.node[7].veinsmobility 	maxSpeed 	15.02499961853
scalar IntersectionExampleScenario.node[7].veinsmobility 	totalDistance 	522.66708374023
scalar IntersectionExampleScenario.node[7].veinsmobility 	totalCO2Emission 	177.94344077
scalar IntersectionExampleScenario.node[5].appl 	VehicleRemoved 	0
scalar IntersectionExampleScenario.node[5].appl 	ArrivedAtDest 	1
scalar IntersectionExampleScenario.node[5].appl 	IntersectionEnterTime 	9
scalar IntersectionExampleScenario.node[5].appl 	IntersectionExitTime 	88.124692611425
scalar IntersectionExampleScenario.node[5].appl 	NumberOfCollisions 	0
scalar IntersectionExampleScenario.node[5].nic.phy80211p 	busyTime 	0
scalar IntersectionExampleScenario.node[5].nic.mac1609_4 	ReceivedUnicastPackets 	0
scalar IntersectionExampleScenario.node[5].nic.mac1609_4 	ReceivedBroadcasts 	0
scalar IntersectionExampleScenario.node[5].nic.mac1609_4 	SentPackets 	0
scalar IntersectionExampleScenario.node[5].nic.mac1609_4 	SNIRLostPackets 	0
scalar IntersectionExampleScenario.node[5].nic.mac1609_4 	RXTXLostPackets 	0
scalar IntersectionExampleScenario.node[5].nic.mac1609_4 	TotalLostPackets 	0
scalar IntersectionExampleScenario.node[5].nic.mac1609_4 	DroppedPacketsInMac 	0
scalar IntersectionExampleScenario.node[5].nic.mac1609_4 	TooLittleTime 	0
scalar IntersectionExampleScenario.node[5].nic.mac1609_4 	TimesIntoBackoff 	0
scalar IntersectionExampleScenario.node[5].nic.mac1609_4 	SlotsBackoff 	0
scalar IntersectionExampleScenario.node[5].nic.mac1609_4 	NumInternalContention 	0
scalar IntersectionExampleScenario.node[5].nic.mac1609_4 	totalBusyTime 	0
scalar IntersectionExampleScenario.node[5].veinsmobility 	startTime 	9
scalar IntersectionExampleScenario.node[5].veinsmobility 	totalTime 	96.25
scalar IntersectionExampleScenario.node[5].veinsmobility 	stopTime 	105.5
scalar IntersectionExampleScenario.node[5].veinsmobility 	minSpeed 	0
scalar IntersectionExampleScenario.node[5].veinsmobility 	maxSpeed 	15.25
scalar IntersectionExampleScenario.node[5].veinsmobility 	totalDistance 	544.62066726872
scalar IntersectionExampleScenario.node[5].veinsmobility 	totalCO2Emission 	185.97983490151
scalar IntersectionExampleScenario.node[6].appl 	VehicleRemoved 	0
scalar IntersectionExampleScenario.node[6].appl 	ArrivedAtDest 	1
scalar IntersectionExampleScenario.node[6].appl 	IntersectionEnterTime 	10.25
scalar IntersectionExampleScenario.node[6].appl 	IntersectionExitTime 	90.589991253742
scalar IntersectionExampleScenario.node[6].appl 	NumberOfCollisions 	0
scalar IntersectionExampleScenario.node[6].nic.phy80211p 	busyTime 	0
scalar IntersectionExampleScenario.node[6].nic.mac1609_4 	ReceivedUnicastPackets 	0
scalar IntersectionExampleScenario.node[6].nic.mac1609_4 	ReceivedBroadcasts 	0
scalar IntersectionExampleScenario.node[6].nic.mac1609_4 	SentPackets 	0
scalar IntersectionExampleScenario.node[6].nic.mac1609_4 	SNIRLostPackets 	0
scalar IntersectionExampleScenario.node[6].nic.mac1609_4 	RXTXLostPackets 	0
scalar IntersectionExampleScenario.node[6].nic.mac1609_4 	TotalLostPackets 	0
scalar IntersectionExampleScenario.node[6].nic.mac1609_4 	DroppedPacketsInMac 	0
scalar IntersectionExampleScenario.node[6].nic.mac1609_4 	TooLittleTime 	0
scalar IntersectionExampleScenario.node[6].nic.mac1609_4 	TimesIntoBackoff 	0
scalar IntersectionExampleScenario.node[6].nic.mac1609_4 	SlotsBackoff 	0
scalar IntersectionExampleScenario.node[6].nic.mac1609_4 	NumInternalContention 	0
scalar IntersectionExampleScenario.node[6].nic.mac1609_4 	totalBusyTime 	0
scalar IntersectionExampleScenario.node[6].veinsmobility 	startTime 	10.25
scalar IntersectionExampleScenario.node[6].veinsmobility 	totalTime 	96
scalar IntersectionExampleScenario.node[6].veinsmobility 	stopTime 	106.5
scalar IntersectionExampleScenario.node[6].veinsmobility 	minSpeed 	0
scalar IntersectionExampleScenario.node[6].veinsmobility 	maxSpeed 	16
scalar IntersectionExampleScenario.node[6].veinsmobility 	totalDistance 	570.42039025945
scalar IntersectionExampleScenario.node[6].veinsmobility 	totalCO2Emission 	194.35664281328
scalar IntersectionExampleScenario.node[11].appl 	VehicleRemoved 	0
scalar IntersectionExampleScenario.node[11].appl 	ArrivedAtDest 	1
scalar IntersectionExampleScenario.node[11].appl 	IntersectionEnterTime 	22.25
scalar IntersectionExampleScenario.node[11].appl 	IntersectionExitTime 	92.759094740817
scalar IntersectionExampleScenario.node[11].appl 	NumberOfCollisions 	0
scalar IntersectionExampleScenario.node[11].nic.phy80211p 	busyTime 	0
scalar IntersectionExampleScenario.node[11].nic.mac1609_4 	ReceivedUnicastPackets 	0
scalar IntersectionExampleScenario.node[11].nic.mac1609_4 	ReceivedBroadcasts 	0
scalar IntersectionExampleScenario.node[11].nic.mac1609_4 	SentPackets 	0
scalar IntersectionExampleScenario.node[11].nic.mac1609_4 	SNIRLostPackets 	0
scalar IntersectionExampleScenario.node[11].nic.mac1609_4 	RXTXLostPackets 	0
scalar IntersectionExampleScenario.node[11].nic.mac1609_4 	TotalLostPackets 	0
scalar IntersectionExampleScenario.node[11].nic.mac1609_4 	DroppedPacketsInMac 	0
scalar IntersectionExampleScenario.node[11].nic.mac1609_4 	TooLittleTime 	0
scalar IntersectionExampleScenario.node[11].nic.mac1609_4 	TimesIntoBackoff 	0
scalar IntersectionExampleScenario.node[11].nic.mac1609_4 	SlotsBackoff 	0
scalar IntersectionExampleScenario.node[11].nic.mac1609_4 	NumInternalContention 	0
scalar IntersectionExampleScenario.node[11].nic.mac1609_4 	totalBusyTime 	0
scalar IntersectionExampleScenario.node[11].veinsmobility 	startTime 	22.25
scalar IntersectionExampleScenario.node[11].veinsmobility 	totalTime 	86.5
scalar IntersectionExampleScenario.node[11].veinsmobility 	stopTime 	109
scalar IntersectionExampleScenario.node[11].veinsmobility 	minSpeed 	0
scalar IntersectionExampleScenario.node[11].veinsmobility 	maxSpeed 	16
scalar IntersectionExampleScenario.node[11].veinsmobility 	totalDistance 	552.20142888149
scalar IntersectionExampleScenario.node[11].veinsmobility 	totalCO2Emission 	179.26264433071
scalar IntersectionExampleScenario.node[14].appl 	VehicleRemoved 	0
scalar IntersectionExampleScenario.node[14].appl 	ArrivedAtDest 	1
scalar IntersectionExampleScenario.node[14].appl 	IntersectionEnterTime 	32.75
scalar IntersectionExampleScenario.node[14].appl 	IntersectionExitTime 	94.752778408234
scalar IntersectionExampleScenario.node[14].appl 	NumberOfCollisions 	0
scalar IntersectionExampleScenario.node[14].nic.phy80211p 	busyTime 	0
scalar IntersectionExampleScenario.node[14].nic.mac1609_4 	ReceivedUnicastPackets 	0
scalar IntersectionExampleScenario.node[14].nic.mac1609_4 	ReceivedBroadcasts 	0
scalar IntersectionExampleScenario.node[14].nic.mac1609_4 	SentPackets 	0
scalar IntersectionExampleScenario.node[14].nic.mac1609_4 	SNIRLostPackets 	0
scalar IntersectionExampleScenario.node[14].nic.mac1609_4 	RXTXLostPackets 	0
scalar IntersectionExampleScenario.node[14].nic.mac1609_4 	TotalLostPackets 	0
scalar IntersectionExampleScenario.node[14].nic.mac1609_4 	DroppedPacketsInMac 	0
scalar IntersectionExampleScenario.node[14].nic.mac1609_4 	TooLittleTime 	0
scalar IntersectionExampleScenario.node[14].nic.mac1609_4 	TimesIntoBackoff 	0
scalar IntersectionExampleScenario.node[14].nic.mac1609_4 	SlotsBackoff 	0
scalar IntersectionExampleScenario.node[14].nic.mac1609_4 	NumInternalContention 	0
scalar IntersectionExampleScenario.node[14].nic.mac1609_4 	totalBusyTime 	0
scalar IntersectionExampleScenario.node[14].veinsmobility 	startTime 	32.75
scalar IntersectionExampleScenario.node[14].veinsmobility 	totalTime 	78
scalar IntersectionExampleScenario.node[14].veinsmobility 	stopTime 	111
scalar IntersectionExampleScenario.node[14].veinsmobility 	minSpeed 	0
scalar IntersectionExampleScenario.node[14].veinsmobility 	maxSpeed 	15.64999961853
scalar IntersectionExampleScenario.node[14].veinsmobility 	totalDistance 	553.23868560791
scalar IntersectionExampleScenario.node[14].veinsmobility 	totalCO2Emission 	167.31264025173
scalar IntersectionExampleScenario.node[17].appl 	VehicleRemoved 	0
scalar IntersectionExampleScenario.node[17].appl 	ArrivedAtDest 	1
scalar IntersectionExampleScenario.node[17].appl 	IntersectionEnterTime 	34.5
scalar IntersectionExampleScenario.node[17].appl 	IntersectionExitTime 	96.873809313693
scalar IntersectionExampleScenario.node[17].appl 	NumberOfCollisions 	0
scalar IntersectionExampleScenario.node[17].nic.phy80211p 	busyTime 	0
scalar IntersectionExampleScenario.node[17].nic.mac1609_4 	ReceivedUnicastPackets 	0
scalar IntersectionExampleScenario.node[17].nic.mac1609_4 	ReceivedBroadcasts 	0
scalar IntersectionExampleScenario.node[17].nic.mac1609_4 	SentPackets 	0
scalar IntersectionExampleScenario.node[17].nic.mac1609_4 	SNIRLostPackets 	0
scalar IntersectionExampleScenario.node[17].nic.mac1609_4 	RXTXLostPackets 	0
scalar IntersectionExampleScenario.node[17].nic.mac1609_4 	TotalLostPackets 	0
scalar IntersectionExampleScenario.node[17].nic.mac1609_4 	DroppedPacketsInMac 	0
scalar IntersectionExampleScenario.node[17].nic.mac1609_4 	TooLittleTime 	0
scalar IntersectionExampleScenario.node[17].nic.mac1609_4 	TimesIntoBackoff 	0
scalar IntersectionExampleScenario.node[17].nic.mac1609_4 	SlotsBackoff 	0
scalar IntersectionExampleScenario.node[17].nic.mac1609_4 	NumInternalContention 	0
scalar IntersectionExampleScenario.node[17].nic.mac1609_4 	totalBusyTime 	0
scalar IntersectionExampleScenario.node[17].veinsmobility 	startTime 	34.5
scalar IntersectionExampleScenario.node[17].veinsmobility 	totalTime 	78.25
scalar IntersectionExampleScenario.node[17].veinsmobility 	stopTime 	113
scalar IntersectionExampleScenario.node[17].veinsmobility 	minSpeed 	0
scalar IntersectionExampleScenario.node[17].veinsmobility 	maxSpeed 	16
scalar IntersectionExampleScenario.node[17].veinsmobility 	totalDistance 	570.85197306274
scalar IntersectionExampleScenario.node[17].veinsmobility 	totalCO2Emission 	179.0612704769
scalar IntersectionExampleScenario.node[21].appl 	VehicleRemoved 	0
scalar IntersectionExampleScenario.node[21].appl 	ArrivedAtDest 	1
scalar IntersectionExampleScenario.node[21].appl 	IntersectionEnterTime 	37.25
scalar IntersectionExampleScenario.node[21].appl 	IntersectionExitTime 	99.511804949027
scalar IntersectionExampleScenario.node[21].appl 	NumberOfCollisions 	0
scalar IntersectionExampleScenario.node[21].nic.phy80211p 	busyTime 	0
scalar IntersectionExampleScenario.node[21].nic.mac1609_4 	ReceivedUnicastPackets 	0
scalar IntersectionExampleScenario.node[21].nic.mac1609_4 	ReceivedBroadcasts 	0
scalar IntersectionExampleScenario.node[21].nic.mac1609_4 	SentPackets 	0
scalar IntersectionExampleScenario.node[21].nic.mac1609_4 	SNIRLostPackets 	0
scalar IntersectionExampleScenario.node[21].nic.mac1609_4 	RXTXLostPackets 	0
scalar IntersectionExampleScenario.node[21].nic.mac1609_4 	TotalLostPackets 	0
scalar IntersectionExampleScenario.node[21].nic.mac1609_4 	DroppedPacketsInMac 	0
scalar IntersectionExampleScenario.node[21].nic.mac1609_4 	TooLittleTime 	0
scalar IntersectionExampleScenario.node[21].nic.mac1609_4 	TimesIntoBackoff 	0
scalar IntersectionExampleScenario.node[21].nic.mac1609_4 	SlotsBackoff 	0
scalar IntersectionExampleScenario.node[21].nic.mac1609_4 	NumInternalContention 	0
scalar IntersectionExampleScenario.node[21].nic.mac1609_4 	totalBusyTime 	0
scalar IntersectionExampleScenario.node[21].veinsmobility 	startTime 	37.25
scalar IntersectionExampleScenario.node[21].veinsmobility 	totalTime 	78.75
scalar IntersectionExampleScenario.node[21].veinsmobility 	stopTime 	116.25
scalar IntersectionExampleScenario.node[21].veinsmobility 	minSpeed 	0
scalar IntersectionExampleScenario.node[21].veinsmobility 	maxSpeed 	15.64999961853
scalar IntersectionExampleScenario.node[21].veinsmobility 	totalDistance 	576.23154141069
scalar IntersectionExampleScenario.node[21].veinsmobility 	totalCO2Emission 	173.64807254692
scalar IntersectionExampleScenario.node[23].appl 	VehicleRemoved 	0
scalar IntersectionExampleScenario.node[23].appl 	ArrivedAtDest 	1
scalar IntersectionExampleScenario.node[23].appl 	IntersectionEnterTime 	38.75
scalar IntersectionExampleScenario.node[23].appl 	IntersectionExitTime 	101.33617965918
scalar IntersectionExampleScenario.node[23].appl 	NumberOfCollisions 	0
scalar IntersectionExampleScenario.node[23].nic.phy80211p 	busyTime 	0
scalar IntersectionExampleScenario.node[23].nic.mac1609_4 	ReceivedUnicastPackets 	0
scalar IntersectionExampleScenario.node[23].nic.mac1609_4 	ReceivedBroadcasts 	0
scalar IntersectionExampleScenario.node[23].nic.mac1609_4 	SentPackets 	0
scalar IntersectionExampleScenario.node[23].nic.mac1609_4 	SNIRLostPackets 	0
scalar IntersectionExampleScenario.node[23].nic.mac1609_4 	RXTXLostPackets 	0
scalar IntersectionExampleScenario.node[23].nic.mac1609_4 	TotalLostPackets 	0
scalar IntersectionExampleScenario.node[23].nic.mac1609_4 	DroppedPacketsInMac 	0
scalar IntersectionExampleScenario.node[23].nic.mac1609_4 	TooLittleTime 	0
scalar IntersectionExampleScenario.node[23].nic.mac1609_4 	TimesIntoBackoff 	0
scalar IntersectionExampleScenario.node[23].nic.mac1609_4 	SlotsBackoff 	0
scalar IntersectionExampleScenario.node[23].nic.mac1609_4 	NumInternalContention 	0
scalar IntersectionExampleScenario.node[23].nic.mac1609_4 	totalBusyTime 	0
scalar IntersectionExampleScenario.node[23].veinsmobility 	startTime 	38.75
scalar IntersectionExampleScenario.node[23].veinsmobility 	totalTime 	78.5
scalar IntersectionExampleScenario.node[23].veinsmobility 	stopTime 	117.5
scalar IntersectionExampleScenario.node[23].veinsmobility 	minSpeed 	0
scalar IntersectionExampleScenario.node[23].veinsmobility 	maxSpeed 	15.5
scalar IntersectionExampleScenario.node[23].veinsmobility 	totalDistance 	585.89778900146
scalar IntersectionExampleScenario.node[23].veinsmobility 	totalCO2Emission 	181.47307082855
scalar IntersectionExampleScenario.node[27].appl 	VehicleRemoved 	0
scalar IntersectionExampleScenario.node[27].appl 	ArrivedAtDest 	1
scalar IntersectionExampleScenario.node[27].appl 	IntersectionEnterTime 	57
scalar IntersectionExampleScenario.node[27].appl 	IntersectionExitTime 	103.04000089102
scalar IntersectionExampleScenario.node[27].appl 	NumberOfCollisions 	0
scalar IntersectionExampleScenario.node[27].nic.phy80211p 	busyTime 	0
scalar IntersectionExampleScenario.node[27].nic.mac1609_4 	ReceivedUnicastPackets 	0
scalar IntersectionExampleScenario.node[27].nic.mac1609_4 	ReceivedBroadcasts 	0
scalar IntersectionExampleScenario.node[27].nic.mac1609_4 	SentPackets 	0
scalar IntersectionExampleScenario.node[27].nic.mac1609_4 	SNIRLostPackets 	0
scalar IntersectionExampleScenario.node[27].nic.mac1609_4 	RXTXLostPackets 	0
scalar IntersectionExampleScenario.node[27].nic.mac1609_4 	TotalLostPackets 	0
scalar IntersectionExampleScenario.node[27].nic.mac1609_4 	DroppedPacketsInMac 	0
scalar IntersectionExampleScenario.node[27].nic.mac1609_4 	TooLittleTime 	0
scalar IntersectionExampleScenario.node[27].nic.mac1609_4 	TimesIntoBackoff 	0
scalar IntersectionExampleScenario.node[27].nic.mac1609_4 	SlotsBackoff 	0
scalar IntersectionExampleScenario.node[27].nic.mac1609_4 	NumInternalContention 	0
scalar IntersectionExampleScenario.node[27].nic.mac1609_4 	totalBusyTime 	0
scalar IntersectionExampleScenario.node[27].veinsmobility 	startTime 	57
scalar IntersectionExampleScenario.node[27].veinsmobility 	totalTime 	61.25
scalar IntersectionExampleScenario.node[27].veinsmobility 	stopTime 	118.5
scalar IntersectionExampleScenario.node[27].veinsmobility 	minSpeed 	0.017526723444462
scalar IntersectionExampleScenario.node[27].veinsmobility 	maxSpeed 	16.621520996094
scalar IntersectionExampleScenario.node[27].veinsmobility 	totalDistance 	552.95822906494
scalar IntersectionExampleScenario.node[27].veinsmobility 	totalCO2Emission 	161.94016677045
scalar IntersectionExampleScenario.node[28].appl 	VehicleRemoved 	0
scalar IntersectionExampleScenario.node[28].appl 	ArrivedAtDest 	1
scalar IntersectionExampleScenario.node[28].appl 	IntersectionEnterTime 	57.25
scalar IntersectionExampleScenario.node[28].appl 	IntersectionExitTime 	105.32524515098
scalar IntersectionExampleScenario.node[28].appl 	NumberOfCollisions 	0
scalar IntersectionExampleScenario.node[28].nic.phy80211p 	busyTime 	0
scalar IntersectionExampleScenario.node[28].nic.mac1609_4 	ReceivedUnicastPackets 	0
scalar IntersectionExampleScenario.node[28].nic.mac1609_4 	ReceivedBroadcasts 	0
scalar IntersectionExampleScenario.node[28].nic.mac1609_4 	SentPackets 	0
scalar IntersectionExampleScenario.node[28].nic.mac1609_4 	SNIRLostPackets 	0
scalar IntersectionExampleScenario.node[28].nic.mac1609_4 	RXTXLostPackets 	0
scalar IntersectionExampleScenario.node[28].nic.mac1609_4 	TotalLostPackets 	0
scalar IntersectionExampleScenario.node[28].nic.mac1609_4 	DroppedPacketsInMac 	0
scalar IntersectionExampleScenario.node[28].nic.mac1609_4 	TooLittleTime 	0
scalar IntersectionExampleScenario.node[28].nic.mac1609_4 	TimesIntoBackoff 	0
scalar IntersectionExampleScenario.node[28].nic.mac1609_4 	SlotsBackoff 	0
scalar IntersectionExampleScenario.node[28].nic.mac1609_4 	NumInternalContention 	0
scalar IntersectionExampleScenario.node[28].nic.mac1609_4 	totalBusyTime 	0
scalar IntersectionExampleScenario.node[28].veinsmobility 	startTime 	57.25
scalar IntersectionExampleScenario.node[28].veinsmobility 	totalTime 	64
scalar IntersectionExampleScenario.node[28].veinsmobility 	stopTime 	121.5
scalar IntersectionExampleScenario.node[28].veinsmobility 	minSpeed 	0
scalar IntersectionExampleScenario.node[28].veinsmobility 	maxSpeed 	15.5
scalar IntersectionExampleScenario.node[28].veinsmobility 	totalDistance 	578.20729827881
scalar IntersectionExampleScenario.node[28].veinsmobility 	totalCO2Emission 	162.44979806979
scalar IntersectionExampleScenario.node[34].appl 	VehicleRemoved 	0
scalar IntersectionExampleScenario.node[34].appl 	ArrivedAtDest 	1
scalar IntersectionExampleScenario.node[34].appl 	IntersectionEnterTime 	60.75
scalar IntersectionExampleScenario.node[34].appl 	IntersectionExitTime 	107.865288573
scalar IntersectionExampleScenario.node[34].appl 	NumberOfCollisions 	0
scalar IntersectionExampleScenario.node[34].nic.phy80211p 	busyTime 	0
scalar IntersectionExampleScenario.node[34].nic.mac1609_4 	ReceivedUnicastPackets 	0
scalar IntersectionExampleScenario.node[34].nic.mac1609_4 	ReceivedBroadcasts 	0
scalar IntersectionExampleScenario.node[34].nic.mac1609_4 	SentPackets 	0
scalar IntersectionExampleScenario.node[34].nic.mac1609_4 	SNIRLostPackets 	0
scalar IntersectionExampleScenario.node[34].nic.mac1609_4 	RXTXLostPackets 	0
scalar IntersectionExampleScenario.node[34].nic.mac1609_4 	TotalLostPackets 	0
scalar IntersectionExampleScenario.node[34].nic.mac1609_4 	DroppedPacketsInMac 	0
scalar IntersectionExampleScenario.node[34].nic.mac1609_4 	TooLittleTime 	0
scalar IntersectionExampleScenario.node[34].nic.mac1609_4 	TimesIntoBackoff 	0
scalar IntersectionExampleScenario.node[34].nic.mac1609_4 	SlotsBackoff 	0
scalar IntersectionExampleScenario.node[34].nic.mac1609_4 	NumInternalContention 	0
scalar IntersectionExampleScenario.node[34].nic.mac1609_4 	totalBusyTime 	0
scalar IntersectionExampleScenario.node[34].veinsmobility 	startTime 	60.75
scalar IntersectionExampleScenario.node[34].veinsmobility 	totalTime 	63
scalar IntersectionExampleScenario.node[34].veinsmobility 	stopTime 	124
scalar IntersectionExampleScenario.node[34].veinsmobility 	minSpeed 	0
scalar IntersectionExampleScenario.node[34].veinsmobility 	maxSpeed 	16
scalar IntersectionExampleScenario.node[34].veinsmobility 	totalDistance 	573.99510264445
scalar IntersectionExampleScenario.node[34].veinsmobility 	totalCO2Emission 	169.82846152533
scalar IntersectionExampleScenario.node[35].appl 	VehicleRemoved 	0
scalar IntersectionExampleScenario.node[35].appl 	ArrivedAtDest 	1
scalar IntersectionExampleScenario.node[35].appl 	IntersectionEnterTime 	68
scalar IntersectionExampleScenario.node[35].appl 	IntersectionExitTime 	109.33282435962
scalar IntersectionExampleScenario.node[35].appl 	NumberOfCollisions 	0
scalar IntersectionExampleScenario.node[35].nic.phy80211p 	busyTime 	0
scalar IntersectionExampleScenario.node[35].nic.mac1609_4 	ReceivedUnicastPackets 	0
scalar IntersectionExampleScenario.node[35].nic.mac1609_4 	ReceivedBroadcasts 	0
scalar IntersectionExampleScenario.node[35].nic.mac1609_4 	SentPackets 	0
scalar IntersectionExampleScenario.node[35].nic.mac1609_4 	SNIRLostPackets 	0
scalar IntersectionExampleScenario.node[35].nic.mac1609_4 	RXTXLostPackets 	0
scalar IntersectionExampleScenario.node[35].nic.mac1609_4 	TotalLostPackets 	0
scalar IntersectionExampleScenario.node[35].nic.mac1609_4 	DroppedPacketsInMac 	0
scalar IntersectionExampleScenario.node[35].nic.mac1609_4 	TooLittleTime 	0
scalar IntersectionExampleScenario.node[35].nic.mac1609_4 	TimesIntoBackoff 	0
scalar IntersectionExampleScenario.node[35].nic.mac1609_4 	SlotsBackoff 	0
scalar IntersectionExampleScenario.node[35].nic.mac1609_4 	NumInternalContention 	0
scalar IntersectionExampleScenario.node[35].nic.mac1609_4 	totalBusyTime 	0
scalar IntersectionExampleScenario.node[35].veinsmobility 	startTime 	68
scalar IntersectionExampleScenario.node[35].veinsmobility 	totalTime 	57
scalar IntersectionExampleScenario.node[35].veinsmobility 	stopTime 	125.25
scalar IntersectionExampleScenario.node[35].veinsmobility 	minSpeed 	0
scalar IntersectionExampleScenario.node[35].veinsmobility 	maxSpeed 	15.644002914429
scalar IntersectionExampleScenario.node[35].veinsmobility 	totalDistance 	554.16367340088
scalar IntersectionExampleScenario.node[35].veinsmobility 	totalCO2Emission 	153.25544799598
scalar IntersectionExampleScenario.node[38].appl 	VehicleRemoved 	0
scalar IntersectionExampleScenario.node[38].appl 	ArrivedAtDest 	1
scalar IntersectionExampleScenario.node[38].appl 	IntersectionEnterTime 	73.75
scalar IntersectionExampleScenario.node[38].appl 	IntersectionExitTime 	111.51536728462
scalar IntersectionExampleScenario.node[38].appl 	NumberOfCollisions 	0
scalar IntersectionExampleScenario.node[38].nic.phy80211p 	busyTime 	0
scalar IntersectionExampleScenario.node[38].nic.mac1609_4 	ReceivedUnicastPackets 	0
scalar IntersectionExampleScenario.node[38].nic.mac1609_4 	ReceivedBroadcasts 	0
scalar IntersectionExampleScenario.node[38].nic.mac1609_4 	SentPackets 	0
scalar IntersectionExampleScenario.node[38].nic.mac1609_4 	SNIRLostPackets 	0
scalar IntersectionExampleScenario.node[38].nic.mac1609_4 	RXTXLostPackets 	0
scalar IntersectionExampleScenario.node[38].nic.mac1609_4 	TotalLostPackets 	0
scalar IntersectionExampleScenario.node[38].nic.mac1609_4 	DroppedPacketsInMac 	0
scalar IntersectionExampleScenario.node[38].nic.mac1609_4 	TooLittleTime 	0
scalar IntersectionExampleScenario.node[38].nic.mac1609_4 	TimesIntoBackoff 	0
scalar IntersectionExampleScenario.node[38].nic.mac1609_4 	SlotsBackoff 	0
scalar IntersectionExampleScenario.node[38].nic.mac1609_4 	NumInternalContention 	0
scalar IntersectionExampleScenario.node[38].nic.mac1609_4 	totalBusyTime 	0
scalar IntersectionExampleScenario.node[38].veinsmobility 	startTime 	73.75
scalar IntersectionExampleScenario.node[38].veinsmobility 	totalTime 	54
scalar IntersectionExampleScenario.node[38].veinsmobility 	stopTime 	128
scalar IntersectionExampleScenario.node[38].veinsmobility 	minSpeed 	0
scalar IntersectionExampleScenario.node[38].veinsmobility 	maxSpeed 	15.474046707153
scalar IntersectionExampleScenario.node[38].veinsmobility 	totalDistance 	551.41330718994
scalar IntersectionExampleScenario.node[38].veinsmobility 	totalCO2Emission 	151.06366025616
scalar IntersectionExampleScenario.node[41].appl 	VehicleRemoved 	0
scalar IntersectionExampleScenario.node[41].appl 	ArrivedAtDest 	1
scalar IntersectionExampleScenario.node[41].appl 	IntersectionEnterTime 	78.25
scalar IntersectionExampleScenario.node[41].appl 	IntersectionExitTime 	113.26614014187
scalar IntersectionExampleScenario.node[41].appl 	NumberOfCollisions 	0
scalar IntersectionExampleScenario.node[41].nic.phy80211p 	busyTime 	0
scalar IntersectionExampleScenario.node[41].nic.mac1609_4 	ReceivedUnicastPackets 	0
scalar IntersectionExampleScenario.node[41].nic.mac1609_4 	ReceivedBroadcasts 	0
scalar IntersectionExampleScenario.node[41].nic.mac1609_4 	SentPackets 	0
scalar IntersectionExampleScenario.node[41].nic.mac1609_4 	SNIRLostPackets 	0
scalar IntersectionExampleScenario.node[41].nic.mac1609_4 	RXTXLostPackets 	0
scalar IntersectionExampleScenario.node[41].nic.mac1609_4 	TotalLostPackets 	0
scalar IntersectionExampleScenario.node[41].nic.mac1609_4 	DroppedPacketsInMac 	0
scalar IntersectionExampleScenario.node[41].nic.mac1609_4 	TooLittleTime 	0
scalar IntersectionExampleScenario.node[41].nic.mac1609_4 	TimesIntoBackoff 	0
scalar IntersectionExampleScenario.node[41].nic.mac1609_4 	SlotsBackoff 	0
scalar IntersectionExampleScenario.node[41].nic.mac1609_4 	NumInternalContention 	0
scalar IntersectionExampleScenario.node[41].nic.mac1609_4 	totalBusyTime 	0
scalar IntersectionExampleScenario.node[41].veinsmobility 	startTime 	78.25
scalar IntersectionExampleScenario.node[41].veinsmobility 	totalTime 	50.75
scalar IntersectionExampleScenario.node[41].veinsmobility 	stopTime 	129.25
scalar IntersectionExampleScenario.node[41].veinsmobility 	minSpeed 	2.8029072284698
scalar IntersectionExampleScenario.node[41].veinsmobility 	maxSpeed 	16.44833946228
scalar IntersectionExampleScenario.node[41].veinsmobility 	totalDistance 	553.72147369385
scalar IntersectionExampleScenario.node[41].veinsmobility 	totalCO2Emission 	154.19175945229
scalar IntersectionExampleScenario.node[44].appl 	VehicleRemoved 	0
scalar IntersectionExampleScenario.node[44].appl 	ArrivedAtDest 	1
scalar IntersectionExampleScenario.node[44].appl 	IntersectionEnterTime 	85.25
scalar IntersectionExampleScenario.node[44].appl 	IntersectionExitTime 	114.79976840093
scalar IntersectionExampleScenario.node[44].appl 	NumberOfCollisions 	0
scalar IntersectionExampleScenario.node[44].nic.phy80211p 	busyTime 	0
scalar IntersectionExampleScenario.node[44].nic.mac1609_4 	ReceivedUnicastPackets 	0
scalar IntersectionExampleScenario.node[44].nic.mac1609_4 	ReceivedBroadcasts 	0
scalar IntersectionExampleScenario.node[44].nic.mac1609_4 	SentPackets 	0
scalar IntersectionExampleScenario.node[44].nic.mac1609_4 	SNIRLostPackets 	0
scalar IntersectionExampleScenario.node[44].nic.mac1609_4 	RXTXLostPackets 	0
scalar IntersectionExampleScenario.node[44].nic.mac1609_4 	TotalLostPackets 	0
scalar IntersectionExampleScenario.node[44].nic.mac1609_4 	DroppedPacketsInMac 	0
scalar IntersectionExampleScenario.node[44].nic.mac1609_4 	TooLittleTime 	0
scalar IntersectionExampleScenario.node[44].nic.mac1609_4 	TimesIntoBackoff 	0
scalar IntersectionExampleScenario.node[44].nic.mac1609_4 	SlotsBackoff 	0
scalar IntersectionExampleScenario.node[44].nic.mac1609_4 	NumInternalContention 	0
scalar IntersectionExampleScenario.node[44].nic.mac1609_4 	totalBusyTime 	0
scalar IntersectionExampleScenario.node[44].veinsmobility 	startTime 	85.25
scalar IntersectionExampleScenario.node[44].veinsmobility 	totalTime 	44.75
scalar IntersectionExampleScenario.node[44].veinsmobility 	stopTime 	130.25
scalar IntersectionExampleScenario.node[44].veinsmobility 	minSpeed 	5.6500000953674
scalar IntersectionExampleScenario.node[44].veinsmobility 	maxSpeed 	16.208518981934
scalar IntersectionExampleScenario.node[44].veinsmobility 	totalDistance 	551.3381729126
scalar IntersectionExampleScenario.node[44].veinsmobility 	totalCO2Emission 	130.68578113778
scalar IntersectionExampleScenario.node[46].appl 	VehicleRemoved 	0
scalar IntersectionExampleScenario.node[46].appl 	ArrivedAtDest 	1
scalar IntersectionExampleScenario.node[46].appl 	IntersectionEnterTime 	88.75
scalar IntersectionExampleScenario.node[46].appl 	IntersectionExitTime 	117.12198508909
scalar IntersectionExampleScenario.node[46].appl 	NumberOfCollisions 	0
scalar IntersectionExampleScenario.node[46].nic.phy80211p 	busyTime 	0
scalar IntersectionExampleScenario.node[46].nic.mac1609_4 	ReceivedUnicastPackets 	0
scalar IntersectionExampleScenario.node[46].nic.mac1609_4 	ReceivedBroadcasts 	0
scalar IntersectionExampleScenario.node[46].nic.mac1609_4 	SentPackets 	0
scalar IntersectionExampleScenario.node[46].nic.mac1609_4 	SNIRLostPackets 	0
scalar IntersectionExampleScenario.node[46].nic.mac1609_4 	RXTXLostPackets 	0
scalar IntersectionExampleScenario.node[46].nic.mac1609_4 	TotalLostPackets 	0
scalar IntersectionExampleScenario.node[46].nic.mac1609_4 	DroppedPacketsInMac 	0
scalar IntersectionExampleScenario.node[46].nic.mac1609_4 	TooLittleTime 	0
scalar IntersectionExampleScenario.node[46].nic.mac1609_4 	TimesIntoBackoff 	0
scalar IntersectionExampleScenario.node[46].nic.mac1609_4 	SlotsBackoff 	0
scalar IntersectionExampleScenario.node[46].nic.mac1609_4 	NumInternalContention 	0
scalar IntersectionExampleScenario.node[46].nic.mac1609_4 	totalBusyTime 	0
scalar IntersectionExampleScenario.node[46].veinsmobility 	startTime 	88.75
scalar IntersectionExampleScenario.node[46].veinsmobility 	totalTime 	44.5
scalar IntersectionExampleScenario.node[46].veinsmobility 	stopTime 	133.5
scalar IntersectionExampleScenario.node[46].veinsmobility 	minSpeed 	5.6500000953674
scalar IntersectionExampleScenario.node[46].veinsmobility 	maxSpeed 	15.875
scalar IntersectionExampleScenario.node[46].veinsmobility 	totalDistance 	553.13966619106
scalar IntersectionExampleScenario.node[46].veinsmobility 	totalCO2Emission 	133.78447615661
scalar IntersectionExampleScenario.node[48].appl 	VehicleRemoved 	0
scalar IntersectionExampleScenario.node[48].appl 	ArrivedAtDest 	1
scalar IntersectionExampleScenario.node[48].appl 	IntersectionEnterTime 	94.5
scalar IntersectionExampleScenario.node[48].appl 	IntersectionExitTime 	119.29536088969
scalar IntersectionExampleScenario.node[48].appl 	NumberOfCollisions 	0
scalar IntersectionExampleScenario.node[48].nic.phy80211p 	busyTime 	0
scalar IntersectionExampleScenario.node[48].nic.mac1609_4 	ReceivedUnicastPackets 	0
scalar IntersectionExampleScenario.node[48].nic.mac1609_4 	ReceivedBroadcasts 	0
scalar IntersectionExampleScenario.node[48].nic.mac1609_4 	SentPackets 	0
scalar IntersectionExampleScenario.node[48].nic.mac1609_4 	SNIRLostPackets 	0
scalar IntersectionExampleScenario.node[48].nic.mac1609_4 	RXTXLostPackets 	0
scalar IntersectionExampleScenario.node[48].nic.mac1609_4 	TotalLostPackets 	0
scalar IntersectionExampleScenario.node[48].nic.mac1609_4 	DroppedPacketsInMac 	0
scalar IntersectionExampleScenario.node[48].nic.mac1609_4 	TooLittleTime 	0
scalar IntersectionExampleScenario.node[48].nic.mac1609_4 	TimesIntoBackoff 	0
scalar IntersectionExampleScenario.node[48].nic.mac1609_4 	SlotsBackoff 	0
scalar IntersectionExampleScenario.node[48].nic.mac1609_4 	NumInternalContention 	0
scalar IntersectionExampleScenario.node[48].nic.mac1609_4 	totalBusyTime 	0
scalar IntersectionExampleScenario.node[48].veinsmobility 	startTime 	94.5
scalar IntersectionExampleScenario.node[48].veinsmobility 	totalTime 	41.25
scalar IntersectionExampleScenario.node[48].veinsmobility 	stopTime 	136
scalar IntersectionExampleScenario.node[48].veinsmobility 	minSpeed 	5.6500000953674
scalar IntersectionExampleScenario.node[48].veinsmobility 	maxSpeed 	15.875
scalar IntersectionExampleScenario.node[48].veinsmobility 	totalDistance 	546.00698898187
scalar IntersectionExampleScenario.node[48].veinsmobility 	totalCO2Emission 	126.32131512141
scalar IntersectionExampleScenario.node[13].appl 	VehicleRemoved 	0
scalar IntersectionExampleScenario.node[13].appl 	ArrivedAtDest 	1
scalar IntersectionExampleScenario.node[13].appl 	IntersectionEnterTime 	31.5
scalar IntersectionExampleScenario.node[13].appl 	IntersectionExitTime 	129.30111499902
scalar IntersectionExampleScenario.node[13].appl 	NumberOfCollisions 	0
scalar IntersectionExampleScenario.node[13].nic.phy80211p 	busyTime 	0
scalar IntersectionExampleScenario.node[13].nic.mac1609_4 	ReceivedUnicastPackets 	0
scalar IntersectionExampleScenario.node[13].nic.mac1609_4 	ReceivedBroadcasts 	0
scalar IntersectionExampleScenario.node[13].nic.mac1609_4 	SentPackets 	0
scalar IntersectionExampleScenario.node[13].nic.mac1609_4 	SNIRLostPackets 	0
scalar IntersectionExampleScenario.node[13].nic.mac1609_4 	RXTXLostPackets 	0
scalar IntersectionExampleScenario.node[13].nic.mac1609_4 	TotalLostPackets 	0
scalar IntersectionExampleScenario.node[13].nic.mac1609_4 	DroppedPacketsInMac 	0
scalar IntersectionExampleScenario.node[13].nic.mac1609_4 	TooLittleTime 	0
scalar IntersectionExampleScenario.node[13].nic.mac1609_4 	TimesIntoBackoff 	0
scalar IntersectionExampleScenario.node[13].nic.mac1609_4 	SlotsBackoff 	0
scalar IntersectionExampleScenario.node[13].nic.mac1609_4 	NumInternalContention 	0
scalar IntersectionExampleScenario.node[13].nic.mac1609_4 	totalBusyTime 	0
scalar IntersectionExampleScenario.node[13].veinsmobility 	startTime 	31.5
scalar IntersectionExampleScenario.node[13].veinsmobility 	totalTime 	113.25
scalar IntersectionExampleScenario.node[13].veinsmobility 	stopTime 	145
scalar IntersectionExampleScenario.node[13].veinsmobility 	minSpeed 	0
scalar IntersectionExampleScenario.node[13].veinsmobility 	maxSpeed 	16
scalar IntersectionExampleScenario.node[13].veinsmobility 	totalDistance 	550.89945220947
scalar IntersectionExampleScenario.node[13].veinsmobility 	totalCO2Emission 	207.21543106623
scalar IntersectionExampleScenario.node[15].appl 	VehicleRemoved 	0
scalar IntersectionExampleScenario.node[15].appl 	ArrivedAtDest 	1
scalar IntersectionExampleScenario.node[15].appl 	IntersectionEnterTime 	32.75
scalar IntersectionExampleScenario.node[15].appl 	IntersectionExitTime 	129.30731253375
scalar IntersectionExampleScenario.node[15].appl 	NumberOfCollisions 	0
scalar IntersectionExampleScenario.node[15].nic.phy80211p 	busyTime 	0
scalar IntersectionExampleScenario.node[15].nic.mac1609_4 	ReceivedUnicastPackets 	0
scalar IntersectionExampleScenario.node[15].nic.mac1609_4 	ReceivedBroadcasts 	0
scalar IntersectionExampleScenario.node[15].nic.mac1609_4 	SentPackets 	0
scalar IntersectionExampleScenario.node[15].nic.mac1609_4 	SNIRLostPackets 	0
scalar IntersectionExampleScenario.node[15].nic.mac1609_4 	RXTXLostPackets 	0
scalar IntersectionExampleScenario.node[15].nic.mac1609_4 	TotalLostPackets 	0
scalar IntersectionExampleScenario.node[15].nic.mac1609_4 	DroppedPacketsInMac 	0
scalar IntersectionExampleScenario.node[15].nic.mac1609_4 	TooLittleTime 	0
scalar IntersectionExampleScenario.node[15].nic.mac1609_4 	TimesIntoBackoff 	0
scalar IntersectionExampleScenario.node[15].nic.mac1609_4 	SlotsBackoff 	0
scalar IntersectionExampleScenario.node[15].nic.mac1609_4 	NumInternalContention 	0
scalar IntersectionExampleScenario.node[15].nic.mac1609_4 	totalBusyTime 	0
scalar IntersectionExampleScenario.node[15].veinsmobility 	startTime 	32.75
scalar IntersectionExampleScenario.node[15].veinsmobility 	totalTime 	112.25
scalar IntersectionExampleScenario.node[15].veinsmobility 	stopTime 	145.25
scalar IntersectionExampleScenario.node[15].veinsmobility 	minSpeed 	0
scalar IntersectionExampleScenario.node[15].veinsmobility 	maxSpeed 	16
scalar IntersectionExampleScenario.node[15].veinsmobility 	totalDistance 	550.4374782001
scalar IntersectionExampleScenario.node[15].veinsmobility 	totalCO2Emission 	205.82781089041
scalar IntersectionExampleScenario.node[18].appl 	VehicleRemoved 	0
scalar IntersectionExampleScenario.node[18].appl 	ArrivedAtDest 	1
scalar IntersectionExampleScenario.node[18].appl 	IntersectionEnterTime 	35
scalar IntersectionExampleScenario.node[18].appl 	IntersectionExitTime 	130.08258550102
scalar IntersectionExampleScenario.node[18].appl 	NumberOfCollisions 	0
scalar IntersectionExampleScenario.node[18].nic.phy80211p 	busyTime 	0
scalar IntersectionExampleScenario.node[18].nic.mac1609_4 	ReceivedUnicastPackets 	0
scalar IntersectionExampleScenario.node[18].nic.mac1609_4 	ReceivedBroadcasts 	0
scalar IntersectionExampleScenario.node[18].nic.mac1609_4 	SentPackets 	0
scalar IntersectionExampleScenario.node[18].nic.mac1609_4 	SNIRLostPackets 	0
scalar IntersectionExampleScenario.node[18].nic.mac1609_4 	RXTXLostPackets 	0
scalar IntersectionExampleScenario.node[18].nic.mac1609_4 	TotalLostPackets 	0
scalar IntersectionExampleScenario.node[18].nic.mac1609_4 	DroppedPacketsInMac 	0
scalar IntersectionExampleScenario.node[18].nic.mac1609_4 	TooLittleTime 	0
scalar IntersectionExampleScenario.node[18].nic.mac1609_4 	TimesIntoBackoff 	0
scalar IntersectionExampleScenario.node[18].nic.mac1609_4 	SlotsBackoff 	0
scalar IntersectionExampleScenario.node[18].nic.mac1609_4 	NumInternalContention 	0
scalar IntersectionExampleScenario.node[18].nic.mac1609_4 	totalBusyTime 	0
scalar IntersectionExampleScenario.node[18].veinsmobility 	startTime 	35
scalar IntersectionExampleScenario.node[18].veinsmobility 	totalTime 	112
scalar IntersectionExampleScenario.node[18].veinsmobility 	stopTime 	147.25
scalar IntersectionExampleScenario.node[18].veinsmobility 	minSpeed 	0
scalar IntersectionExampleScenario.node[18].veinsmobility 	maxSpeed 	15.25
scalar IntersectionExampleScenario.node[18].veinsmobility 	totalDistance 	562.66876012995
scalar IntersectionExampleScenario.node[18].veinsmobility 	totalCO2Emission 	201.70349555296
scalar IntersectionExampleScenario.node[20].appl 	VehicleRemoved 	0
scalar IntersectionExampleScenario.node[20].appl 	ArrivedAtDest 	1
scalar IntersectionExampleScenario.node[20].appl 	IntersectionEnterTime 	36.5
scalar IntersectionExampleScenario.node[20].appl 	IntersectionExitTime 	131.59490095719
scalar IntersectionExampleScenario.node[20].appl 	NumberOfCollisions 	0
scalar IntersectionExampleScenario.node[20].nic.phy80211p 	busyTime 	0
scalar IntersectionExampleScenario.node[20].nic.mac1609_4 	ReceivedUnicastPackets 	0
scalar IntersectionExampleScenario.node[20].nic.mac1609_4 	ReceivedBroadcasts 	0
scalar IntersectionExampleScenario.node[20].nic.mac1609_4 	SentPackets 	0
scalar IntersectionExampleScenario.node[20].nic.mac1609_4 	SNIRLostPackets 	0
scalar IntersectionExampleScenario.node[20].nic.mac1609_4 	RXTXLostPackets 	0
scalar IntersectionExampleScenario.node[20].nic.mac1609_4 	TotalLostPackets 	0
scalar IntersectionExampleScenario.node[20].nic.mac1609_4 	DroppedPacketsInMac 	0
scalar IntersectionExampleScenario.node[20].nic.mac1609_4 	TooLittleTime 	0
scalar IntersectionExampleScenario.node[20].nic.mac1609_4 	TimesIntoBackoff 	0
scalar IntersectionExampleScenario.node[20].nic.mac1609_4 	SlotsBackoff 	0
scalar IntersectionExampleScenario.node[20].nic.mac1609_4 	NumInternalContention 	0
scalar IntersectionExampleScenario.node[20].nic.mac1609_4 	totalBusyTime 	0
scalar IntersectionExampleScenario.node[20].veinsmobility 	startTime 	36.5
scalar IntersectionExampleScenario.node[20].veinsmobility 	totalTime 	111
scalar IntersectionExampleScenario.node[20].veinsmobility 	stopTime 	147.75
scalar IntersectionExampleScenario.node[20].veinsmobility 	minSpeed 	0
scalar IntersectionExampleScenario.node[20].veinsmobility 	maxSpeed 	15.64999961853
scalar IntersectionExampleScenario.node[20].veinsmobility 	totalDistance 	524.61325836182
scalar IntersectionExampleScenario.node[20].veinsmobility 	totalCO2Emission 	200.37357350839
scalar IntersectionExampleScenario.node[22].appl 	VehicleRemoved 	0
scalar IntersectionExampleScenario.node[22].appl 	ArrivedAtDest 	1
scalar IntersectionExampleScenario.node[22].appl 	IntersectionEnterTime 	37.5
scalar IntersectionExampleScenario.node[22].appl 	IntersectionExitTime 	132.52182826027
scalar IntersectionExampleScenario.node[22].appl 	NumberOfCollisions 	0
scalar IntersectionExampleScenario.node[22].nic.phy80211p 	busyTime 	0
scalar IntersectionExampleScenario.node[22].nic.mac1609_4 	ReceivedUnicastPackets 	0
scalar IntersectionExampleScenario.node[22].nic.mac1609_4 	ReceivedBroadcasts 	0
scalar IntersectionExampleScenario.node[22].nic.mac1609_4 	SentPackets 	0
scalar IntersectionExampleScenario.node[22].nic.mac1609_4 	SNIRLostPackets 	0
scalar IntersectionExampleScenario.node[22].nic.mac1609_4 	RXTXLostPackets 	0
scalar IntersectionExampleScenario.node[22].nic.mac1609_4 	TotalLostPackets 	0
scalar IntersectionExampleScenario.node[22].nic.mac1609_4 	DroppedPacketsInMac 	0
scalar IntersectionExampleScenario.node[22].nic.mac1609_4 	TooLittleTime 	0
scalar IntersectionExampleScenario.node[22].nic.mac1609_4 	TimesIntoBackoff 	0
scalar IntersectionExampleScenario.node[22].nic.mac1609_4 	SlotsBackoff 	0
scalar IntersectionExampleScenario.node[22].nic.mac1609_4 	NumInternalContention 	0
scalar IntersectionExampleScenario.node[22].nic.mac1609_4 	totalBusyTime 	0
scalar IntersectionExampleScenario.node[22].veinsmobility 	startTime 	37.5
scalar IntersectionExampleScenario.node[22].veinsmobility 	totalTime 	112
scalar IntersectionExampleScenario.node[22].veinsmobility 	stopTime 	149.75
scalar IntersectionExampleScenario.node[22].veinsmobility 	minSpeed 	0
scalar IntersectionExampleScenario.node[22].veinsmobility 	maxSpeed 	15.25
scalar IntersectionExampleScenario.node[22].veinsmobility 	totalDistance 	568.64952377576
scalar IntersectionExampleScenario.node[22].veinsmobility 	totalCO2Emission 	201.16537591631
scalar IntersectionExampleScenario.node[16].appl 	VehicleRemoved 	0
scalar IntersectionExampleScenario.node[16].appl 	ArrivedAtDest 	1
scalar IntersectionExampleScenario.node[16].appl 	IntersectionEnterTime 	33.5
scalar IntersectionExampleScenario.node[16].appl 	IntersectionExitTime 	134.08275956902
scalar IntersectionExampleScenario.node[16].appl 	NumberOfCollisions 	0
scalar IntersectionExampleScenario.node[16].nic.phy80211p 	busyTime 	0
scalar IntersectionExampleScenario.node[16].nic.mac1609_4 	ReceivedUnicastPackets 	0
scalar IntersectionExampleScenario.node[16].nic.mac1609_4 	ReceivedBroadcasts 	0
scalar IntersectionExampleScenario.node[16].nic.mac1609_4 	SentPackets 	0
scalar IntersectionExampleScenario.node[16].nic.mac1609_4 	SNIRLostPackets 	0
scalar IntersectionExampleScenario.node[16].nic.mac1609_4 	RXTXLostPackets 	0
scalar IntersectionExampleScenario.node[16].nic.mac1609_4 	TotalLostPackets 	0
scalar IntersectionExampleScenario.node[16].nic.mac1609_4 	DroppedPacketsInMac 	0
scalar IntersectionExampleScenario.node[16].nic.mac1609_4 	TooLittleTime 	0
scalar IntersectionExampleScenario.node[16].nic.mac1609_4 	TimesIntoBackoff 	0
scalar IntersectionExampleScenario.node[16].nic.mac1609_4 	SlotsBackoff 	0
scalar IntersectionExampleScenario.node[16].nic.mac1609_4 	NumInternalContention 	0
scalar IntersectionExampleScenario.node[16].nic.mac1609_4 	totalBusyTime 	0
scalar IntersectionExampleScenario.node[16].veinsmobility 	startTime 	33.5
scalar IntersectionExampleScenario.node[16].veinsmobility 	totalTime 	117.25
scalar IntersectionExampleScenario.node[16].veinsmobility 	stopTime 	151
scalar IntersectionExampleScenario.node[16].veinsmobility 	minSpeed 	0
scalar IntersectionExampleScenario.node[16].veinsmobility 	maxSpeed 	16.31343460083
scalar IntersectionExampleScenario.node[16].veinsmobility 	totalDistance 	568.98311118311
scalar IntersectionExampleScenario.node[16].veinsmobility 	totalCO2Emission 	229.24020052219
scalar IntersectionExampleScenario.node[25].appl 	VehicleRemoved 	0
scalar IntersectionExampleScenario.node[25].appl 	ArrivedAtDest 	1
scalar IntersectionExampleScenario.node[25].appl 	IntersectionEnterTime 	50
scalar IntersectionExampleScenario.node[25].appl 	IntersectionExitTime 	135.03054743959
scalar IntersectionExampleScenario.node[25].appl 	NumberOfCollisions 	0
scalar IntersectionExampleScenario.node[25].nic.phy80211p 	busyTime 	0
scalar IntersectionExampleScenario.node[25].nic.mac1609_4 	ReceivedUnicastPackets 	0
scalar IntersectionExampleScenario.node[25].nic.mac1609_4 	ReceivedBroadcasts 	0
scalar IntersectionExampleScenario.node[25].nic.mac1609_4 	SentPackets 	0
scalar IntersectionExampleScenario.node[25].nic.mac1609_4 	SNIRLostPackets 	0
scalar IntersectionExampleScenario.node[25].nic.mac1609_4 	RXTXLostPackets 	0
scalar IntersectionExampleScenario.node[25].nic.mac1609_4 	TotalLostPackets 	0
scalar IntersectionExampleScenario.node[25].nic.mac1609_4 	DroppedPacketsInMac 	0
scalar IntersectionExampleScenario.node[25].nic.mac1609_4 	TooLittleTime 	0
scalar IntersectionExampleScenario.node[25].nic.mac1609_4 	TimesIntoBackoff 	0
scalar IntersectionExampleScenario.node[25].nic.mac1609_4 	SlotsBackoff 	0
scalar IntersectionExampleScenario.node[25].nic.mac1609_4 	NumInternalContention 	0
scalar IntersectionExampleScenario.node[25].nic.mac1609_4 	totalBusyTime 	0
scalar IntersectionExampleScenario.node[25].veinsmobility 	startTime 	50
scalar IntersectionExampleScenario.node[25].veinsmobility 	totalTime 	102.25
scalar IntersectionExampleScenario.node[25].veinsmobility 	stopTime 	152.5
scalar IntersectionExampleScenario.node[25].veinsmobility 	minSpeed 	0
scalar IntersectionExampleScenario.node[25].veinsmobility 	maxSpeed 	14.75
scalar IntersectionExampleScenario.node[25].veinsmobility 	totalDistance 	552.23727560302
scalar IntersectionExampleScenario.node[25].veinsmobility 	totalCO2Emission 	185.56272122492
scalar IntersectionExampleScenario.node[19].appl 	VehicleRemoved 	0
scalar IntersectionExampleScenario.node[19].appl 	ArrivedAtDest 	1
scalar IntersectionExampleScenario.node[19].appl 	IntersectionEnterTime 	36
scalar IntersectionExampleScenario.node[19].appl 	IntersectionExitTime 	137.53884099305
scalar IntersectionExampleScenario.node[19].appl 	NumberOfCollisions 	0
scalar IntersectionExampleScenario.node[19].nic.phy80211p 	busyTime 	0
scalar IntersectionExampleScenario.node[19].nic.mac1609_4 	ReceivedUnicastPackets 	0
scalar IntersectionExampleScenario.node[19].nic.mac1609_4 	ReceivedBroadcasts 	0
scalar IntersectionExampleScenario.node[19].nic.mac1609_4 	SentPackets 	0
scalar IntersectionExampleScenario.node[19].nic.mac1609_4 	SNIRLostPackets 	0
scalar IntersectionExampleScenario.node[19].nic.mac1609_4 	RXTXLostPackets 	0
scalar IntersectionExampleScenario.node[19].nic.mac1609_4 	TotalLostPackets 	0
scalar IntersectionExampleScenario.node[19].nic.mac1609_4 	DroppedPacketsInMac 	0
scalar IntersectionExampleScenario.node[19].nic.mac1609_4 	TooLittleTime 	0
scalar IntersectionExampleScenario.node[19].nic.mac1609_4 	TimesIntoBackoff 	0
scalar IntersectionExampleScenario.node[19].nic.mac1609_4 	SlotsBackoff 	0
scalar IntersectionExampleScenario.node[19].nic.mac1609_4 	NumInternalContention 	0
scalar IntersectionExampleScenario.node[19].nic.mac1609_4 	totalBusyTime 	0
scalar IntersectionExampleScenario.node[19].veinsmobility 	startTime 	36
scalar IntersectionExampleScenario.node[19].veinsmobility 	totalTime 	117.75
scalar IntersectionExampleScenario.node[19].veinsmobility 	stopTime 	154
scalar IntersectionExampleScenario.node[19].veinsmobility 	minSpeed 	0
scalar IntersectionExampleScenario.node[19].veinsmobility 	maxSpeed 	15.796286582947
scalar IntersectionExampleScenario.node[19].veinsmobility 	totalDistance 	568.03359649075
scalar IntersectionExampleScenario.node[19].veinsmobility 	totalCO2Emission 	224.31359920541
scalar IntersectionExampleScenario.node[31].appl 	VehicleRemoved 	0
scalar IntersectionExampleScenario.node[31].appl 	ArrivedAtDest 	1
scalar IntersectionExampleScenario.node[31].appl 	IntersectionEnterTime 	58.75
scalar IntersectionExampleScenario.node[31].appl 	IntersectionExitTime 	137.79109240894
scalar IntersectionExampleScenario.node[31].appl 	NumberOfCollisions 	0
scalar IntersectionExampleScenario.node[31].nic.phy80211p 	busyTime 	0
scalar IntersectionExampleScenario.node[31].nic.mac1609_4 	ReceivedUnicastPackets 	0
scalar IntersectionExampleScenario.node[31].nic.mac1609_4 	ReceivedBroadcasts 	0
scalar IntersectionExampleScenario.node[31].nic.mac1609_4 	SentPackets 	0
scalar IntersectionExampleScenario.node[31].nic.mac1609_4 	SNIRLostPackets 	0
scalar IntersectionExampleScenario.node[31].nic.mac1609_4 	RXTXLostPackets 	0
scalar IntersectionExampleScenario.node[31].nic.mac1609_4 	TotalLostPackets 	0
scalar IntersectionExampleScenario.node[31].nic.mac1609_4 	DroppedPacketsInMac 	0
scalar IntersectionExampleScenario.node[31].nic.mac1609_4 	TooLittleTime 	0
scalar IntersectionExampleScenario.node[31].nic.mac1609_4 	TimesIntoBackoff 	0
scalar IntersectionExampleScenario.node[31].nic.mac1609_4 	SlotsBackoff 	0
scalar IntersectionExampleScenario.node[31].nic.mac1609_4 	NumInternalContention 	0
scalar IntersectionExampleScenario.node[31].nic.mac1609_4 	totalBusyTime 	0
scalar IntersectionExampleScenario.node[31].veinsmobility 	startTime 	58.75
scalar IntersectionExampleScenario.node[31].veinsmobility 	totalTime 	96.5
scalar IntersectionExampleScenario.node[31].veinsmobility 	stopTime 	155.5
scalar IntersectionExampleScenario.node[31].veinsmobility 	minSpeed 	0
scalar IntersectionExampleScenario.node[31].veinsmobility 	maxSpeed 	15.02499961853
scalar IntersectionExampleScenario.node[31].veinsmobility 	totalDistance 	546.48919019509
scalar IntersectionExampleScenario.node[31].veinsmobility 	totalCO2Emission 	182.1504836507
scalar IntersectionExampleScenario.node[24].appl 	VehicleRemoved 	0
scalar IntersectionExampleScenario.node[24].appl 	ArrivedAtDest 	1
scalar IntersectionExampleScenario.node[24].appl 	IntersectionEnterTime 	47.75
scalar IntersectionExampleScenario.node[24].appl 	IntersectionExitTime 	139.51054527797
scalar IntersectionExampleScenario.node[24].appl 	NumberOfCollisions 	0
scalar IntersectionExampleScenario.node[24].nic.phy80211p 	busyTime 	0
scalar IntersectionExampleScenario.node[24].nic.mac1609_4 	ReceivedUnicastPackets 	0
scalar IntersectionExampleScenario.node[24].nic.mac1609_4 	ReceivedBroadcasts 	0
scalar IntersectionExampleScenario.node[24].nic.mac1609_4 	SentPackets 	0
scalar IntersectionExampleScenario.node[24].nic.mac1609_4 	SNIRLostPackets 	0
scalar IntersectionExampleScenario.node[24].nic.mac1609_4 	RXTXLostPackets 	0
scalar IntersectionExampleScenario.node[24].nic.mac1609_4 	TotalLostPackets 	0
scalar IntersectionExampleScenario.node[24].nic.mac1609_4 	DroppedPacketsInMac 	0
scalar IntersectionExampleScenario.node[24].nic.mac1609_4 	TooLittleTime 	0
scalar IntersectionExampleScenario.node[24].nic.mac1609_4 	TimesIntoBackoff 	0
scalar IntersectionExampleScenario.node[24].nic.mac1609_4 	SlotsBackoff 	0
scalar IntersectionExampleScenario.node[24].nic.mac1609_4 	NumInternalContention 	0
scalar IntersectionExampleScenario.node[24].nic.mac1609_4 	totalBusyTime 	0
scalar IntersectionExampleScenario.node[24].veinsmobility 	startTime 	47.75
scalar IntersectionExampleScenario.node[24].veinsmobility 	totalTime 	108.25
scalar IntersectionExampleScenario.node[24].veinsmobility 	stopTime 	156.25
scalar IntersectionExampleScenario.node[24].veinsmobility 	minSpeed 	0
scalar IntersectionExampleScenario.node[24].veinsmobility 	maxSpeed 	15.915044784546
scalar IntersectionExampleScenario.node[24].veinsmobility 	totalDistance 	542.79305799494
scalar IntersectionExampleScenario.node[24].veinsmobility 	totalCO2Emission 	202.27146129794
scalar IntersectionExampleScenario.node[26].appl 	VehicleRemoved 	0
scalar IntersectionExampleScenario.node[26].appl 	ArrivedAtDest 	1
scalar IntersectionExampleScenario.node[26].appl 	IntersectionEnterTime 	55.5
scalar IntersectionExampleScenario.node[26].appl 	IntersectionExitTime 	141.28163052924
scalar IntersectionExampleScenario.node[26].appl 	NumberOfCollisions 	0
scalar IntersectionExampleScenario.node[26].nic.phy80211p 	busyTime 	0
scalar IntersectionExampleScenario.node[26].nic.mac1609_4 	ReceivedUnicastPackets 	0
scalar IntersectionExampleScenario.node[26].nic.mac1609_4 	ReceivedBroadcasts 	0
scalar IntersectionExampleScenario.node[26].nic.mac1609_4 	SentPackets 	0
scalar IntersectionExampleScenario.node[26].nic.mac1609_4 	SNIRLostPackets 	0
scalar IntersectionExampleScenario.node[26].nic.mac1609_4 	RXTXLostPackets 	0
scalar IntersectionExampleScenario.node[26].nic.mac1609_4 	TotalLostPackets 	0
scalar IntersectionExampleScenario.node[26].nic.mac1609_4 	DroppedPacketsInMac 	0
scalar IntersectionExampleScenario.node[26].nic.mac1609_4 	TooLittleTime 	0
scalar IntersectionExampleScenario.node[26].nic.mac1609_4 	TimesIntoBackoff 	0
scalar IntersectionExampleScenario.node[26].nic.mac1609_4 	SlotsBackoff 	0
scalar IntersectionExampleScenario.node[26].nic.mac1609_4 	NumInternalContention 	0
scalar IntersectionExampleScenario.node[26].nic.mac1609_4 	totalBusyTime 	0
scalar IntersectionExampleScenario.node[26].veinsmobility 	startTime 	55.5
scalar IntersectionExampleScenario.node[26].veinsmobility 	totalTime 	102
scalar IntersectionExampleScenario.node[26].veinsmobility 	stopTime 	157.75
scalar IntersectionExampleScenario.node[26].veinsmobility 	minSpeed 	0
scalar IntersectionExampleScenario.node[26].veinsmobility 	maxSpeed 	15.5
scalar IntersectionExampleScenario.node[26].veinsmobility 	totalDistance 	552.9495010376
scalar IntersectionExampleScenario.node[26].veinsmobility 	totalCO2Emission 	189.12103206716
scalar IntersectionExampleScenario.node[33].appl 	VehicleRemoved 	0
scalar IntersectionExampleScenario.node[33].appl 	ArrivedAtDest 	1
scalar IntersectionExampleScenario.node[33].appl 	IntersectionEnterTime 	60.5
scalar IntersectionExampleScenario.node[33].appl 	IntersectionExitTime 	140.60548512603
scalar IntersectionExampleScenario.node[33].appl 	NumberOfCollisions 	0
scalar IntersectionExampleScenario.node[33].nic.phy80211p 	busyTime 	0
scalar IntersectionExampleScenario.node[33].nic.mac1609_4 	ReceivedUnicastPackets 	0
scalar IntersectionExampleScenario.node[33].nic.mac1609_4 	ReceivedBroadcasts 	0
scalar IntersectionExampleScenario.node[33].nic.mac1609_4 	SentPackets 	0
scalar IntersectionExampleScenario.node[33].nic.mac1609_4 	SNIRLostPackets 	0
scalar IntersectionExampleScenario.node[33].nic.mac1609_4 	RXTXLostPackets 	0
scalar IntersectionExampleScenario.node[33].nic.mac1609_4 	TotalLostPackets 	0
scalar IntersectionExampleScenario.node[33].nic.mac1609_4 	DroppedPacketsInMac 	0
scalar IntersectionExampleScenario.node[33].nic.mac1609_4 	TooLittleTime 	0
scalar IntersectionExampleScenario.node[33].nic.mac1609_4 	TimesIntoBackoff 	0
scalar IntersectionExampleScenario.node[33].nic.mac1609_4 	SlotsBackoff 	0
scalar IntersectionExampleScenario.node[33].nic.mac1609_4 	NumInternalContention 	0
scalar IntersectionExampleScenario.node[33].nic.mac1609_4 	totalBusyTime 	0
scalar IntersectionExampleScenario.node[33].veinsmobility 	startTime 	60.5
scalar IntersectionExampleScenario.node[33].veinsmobility 	totalTime 	97
scalar IntersectionExampleScenario.node[33].veinsmobility 	stopTime 	157.75
scalar IntersectionExampleScenario.node[33].veinsmobility 	minSpeed 	0
scalar IntersectionExampleScenario.node[33].veinsmobility 	maxSpeed 	15.379049301147
scalar IntersectionExampleScenario.node[33].veinsmobility 	totalDistance 	568.90391670581
scalar IntersectionExampleScenario.node[33].veinsmobility 	totalCO2Emission 	196.6370437427
scalar IntersectionExampleScenario.node[47].appl 	VehicleRemoved 	0
scalar IntersectionExampleScenario.node[47].appl 	ArrivedAtDest 	1
scalar IntersectionExampleScenario.node[47].appl 	IntersectionEnterTime 	91.5
scalar IntersectionExampleScenario.node[47].appl 	IntersectionExitTime 	144.33897665315
scalar IntersectionExampleScenario.node[47].appl 	NumberOfCollisions 	0
scalar IntersectionExampleScenario.node[47].nic.phy80211p 	busyTime 	0
scalar IntersectionExampleScenario.node[47].nic.mac1609_4 	ReceivedUnicastPackets 	0
scalar IntersectionExampleScenario.node[47].nic.mac1609_4 	ReceivedBroadcasts 	0
scalar IntersectionExampleScenario.node[47].nic.mac1609_4 	SentPackets 	0
scalar IntersectionExampleScenario.node[47].nic.mac1609_4 	SNIRLostPackets 	0
scalar IntersectionExampleScenario.node[47].nic.mac1609_4 	RXTXLostPackets 	0
scalar IntersectionExampleScenario.node[47].nic.mac1609_4 	TotalLostPackets 	0
scalar IntersectionExampleScenario.node[47].nic.mac1609_4 	DroppedPacketsInMac 	0
scalar IntersectionExampleScenario.node[47].nic.mac1609_4 	TooLittleTime 	0
scalar IntersectionExampleScenario.node[47].nic.mac1609_4 	TimesIntoBackoff 	0
scalar IntersectionExampleScenario.node[47].nic.mac1609_4 	SlotsBackoff 	0
scalar IntersectionExampleScenario.node[47].nic.mac1609_4 	NumInternalContention 	0
scalar IntersectionExampleScenario.node[47].nic.mac1609_4 	totalBusyTime 	0
scalar IntersectionExampleScenario.node[47].veinsmobility 	startTime 	91.5
scalar IntersectionExampleScenario.node[47].veinsmobility 	totalTime 	69
scalar IntersectionExampleScenario.node[47].veinsmobility 	stopTime 	160.75
scalar IntersectionExampleScenario.node[47].veinsmobility 	minSpeed 	0
scalar IntersectionExampleScenario.node[47].veinsmobility 	maxSpeed 	15.5
scalar IntersectionExampleScenario.node[47].veinsmobility 	totalDistance 	552.73585510331
scalar IntersectionExampleScenario.node[47].veinsmobility 	totalCO2Emission 	158.64790626747
scalar IntersectionExampleScenario.node[40].appl 	VehicleRemoved 	0
scalar IntersectionExampleScenario.node[40].appl 	ArrivedAtDest 	1
scalar IntersectionExampleScenario.node[40].appl 	IntersectionEnterTime 	76.75
scalar IntersectionExampleScenario.node[40].appl 	IntersectionExitTime 	143.10803024674
scalar IntersectionExampleScenario.node[40].appl 	NumberOfCollisions 	0
scalar IntersectionExampleScenario.node[40].nic.phy80211p 	busyTime 	0
scalar IntersectionExampleScenario.node[40].nic.mac1609_4 	ReceivedUnicastPackets 	0
scalar IntersectionExampleScenario.node[40].nic.mac1609_4 	ReceivedBroadcasts 	0
scalar IntersectionExampleScenario.node[40].nic.mac1609_4 	SentPackets 	0
scalar IntersectionExampleScenario.node[40].nic.mac1609_4 	SNIRLostPackets 	0
scalar IntersectionExampleScenario.node[40].nic.mac1609_4 	RXTXLostPackets 	0
scalar IntersectionExampleScenario.node[40].nic.mac1609_4 	TotalLostPackets 	0
scalar IntersectionExampleScenario.node[40].nic.mac1609_4 	DroppedPacketsInMac 	0
scalar IntersectionExampleScenario.node[40].nic.mac1609_4 	TooLittleTime 	0
scalar IntersectionExampleScenario.node[40].nic.mac1609_4 	TimesIntoBackoff 	0
scalar IntersectionExampleScenario.node[40].nic.mac1609_4 	SlotsBackoff 	0
scalar IntersectionExampleScenario.node[40].nic.mac1609_4 	NumInternalContention 	0
scalar IntersectionExampleScenario.node[40].nic.mac1609_4 	totalBusyTime 	0
[...]
scalar IntersectionExampleScenario.node[629].veinsmobility 	totalDistance 	523.9200117761
scalar IntersectionExampleScenario.node[629].veinsmobility 	totalCO2Emission 	123.70093553872
scalar IntersectionExampleScenario.node[630].appl 	VehicleRemoved 	0
scalar IntersectionExampleScenario.node[630].appl 	ArrivedAtDest 	0
scalar IntersectionExampleScenario.node[630].appl 	IntersectionEnterTime 	1767.25
scalar IntersectionExampleScenario.node[630].appl 	IntersectionExitTime 	-1
scalar IntersectionExampleScenario.node[630].appl 	NumberOfCollisions 	0
scalar IntersectionExampleScenario.node[630].nic.phy80211p 	busyTime 	0
scalar IntersectionExampleScenario.node[630].nic.mac1609_4 	ReceivedUnicastPackets 	0
scalar IntersectionExampleScenario.node[630].nic.mac1609_4 	ReceivedBroadcasts 	0
scalar IntersectionExampleScenario.node[630].nic.mac1609_4 	SentPackets 	0
scalar IntersectionExampleScenario.node[630].nic.mac1609_4 	SNIRLostPackets 	0
scalar IntersectionExampleScenario.node[630].nic.mac1609_4 	RXTXLostPackets 	0
scalar IntersectionExampleScenario.node[630].nic.mac1609_4 	TotalLostPackets 	0
scalar IntersectionExampleScenario.node[630].nic.mac1609_4 	DroppedPacketsInMac 	0
scalar IntersectionExampleScenario.node[630].nic.mac1609_4 	TooLittleTime 	0
scalar IntersectionExampleScenario.node[630].nic.mac1609_4 	TimesIntoBackoff 	0
scalar IntersectionExampleScenario.node[630].nic.mac1609_4 	SlotsBackoff 	0
scalar IntersectionExampleScenario.node[630].nic.mac1609_4 	NumInternalContention 	0
scalar IntersectionExampleScenario.node[630].nic.mac1609_4 	totalBusyTime 	0
scalar IntersectionExampleScenario.node[630].veinsmobility 	startTime 	1767.25
scalar IntersectionExampleScenario.node[630].veinsmobility 	totalTime 	32.75
scalar IntersectionExampleScenario.node[630].veinsmobility 	stopTime 	1800
scalar IntersectionExampleScenario.node[630].veinsmobility 	minSpeed 	0
scalar IntersectionExampleScenario.node[630].veinsmobility 	maxSpeed 	15.64999961853
scalar IntersectionExampleScenario.node[630].veinsmobility 	totalDistance 	267.34524536133
scalar IntersectionExampleScenario.node[630].veinsmobility 	totalCO2Emission 	71.173084858357
scalar IntersectionExampleScenario.node[631].appl 	VehicleRemoved 	0
scalar IntersectionExampleScenario.node[631].appl 	ArrivedAtDest 	0
scalar IntersectionExampleScenario.node[631].appl 	IntersectionEnterTime 	1768.25
scalar IntersectionExampleScenario.node[631].appl 	IntersectionExitTime 	-1
scalar IntersectionExampleScenario.node[631].appl 	NumberOfCollisions 	0
scalar IntersectionExampleScenario.node[631].nic.phy80211p 	busyTime 	0
scalar IntersectionExampleScenario.node[631].nic.mac1609_4 	ReceivedUnicastPackets 	0
scalar IntersectionExampleScenario.node[631].nic.mac1609_4 	ReceivedBroadcasts 	0
scalar IntersectionExampleScenario.node[631].nic.mac1609_4 	SentPackets 	0
scalar IntersectionExampleScenario.node[631].nic.mac1609_4 	SNIRLostPackets 	0
scalar IntersectionExampleScenario.node[631].nic.mac1609_4 	RXTXLostPackets 	0
scalar IntersectionExampleScenario.node[631].nic.mac1609_4 	TotalLostPackets 	0
scalar IntersectionExampleScenario.node[631].nic.mac1609_4 	DroppedPacketsInMac 	0
scalar IntersectionExampleScenario.node[631].nic.mac1609_4 	TooLittleTime 	0
scalar IntersectionExampleScenario.node[631].nic.mac1609_4 	TimesIntoBackoff 	0
scalar IntersectionExampleScenario.node[631].nic.mac1609_4 	SlotsBackoff 	0
scalar IntersectionExampleScenario.node[631].nic.mac1609_4 	NumInternalContention 	0
scalar IntersectionExampleScenario.node[631].nic.mac1609_4 	totalBusyTime 	0
scalar IntersectionExampleScenario.node[631].veinsmobility 	startTime 	1768.25
scalar IntersectionExampleScenario.node[631].veinsmobility 	totalTime 	31.75
scalar IntersectionExampleScenario.node[631].veinsmobility 	stopTime 	1800
scalar IntersectionExampleScenario.node[631].veinsmobility 	minSpeed 	0
scalar IntersectionExampleScenario.node[631].veinsmobility 	maxSpeed 	16.306608200073
scalar IntersectionExampleScenario.node[631].veinsmobility 	totalDistance 	281.31585693359
scalar IntersectionExampleScenario.node[631].veinsmobility 	totalCO2Emission 	78.233799850658
scalar IntersectionExampleScenario.node[632].appl 	VehicleRemoved 	0
scalar IntersectionExampleScenario.node[632].appl 	ArrivedAtDest 	0
scalar IntersectionExampleScenario.node[632].appl 	IntersectionEnterTime 	1774
scalar IntersectionExampleScenario.node[632].appl 	IntersectionExitTime 	1797.5246560622
scalar IntersectionExampleScenario.node[632].appl 	NumberOfCollisions 	0
scalar IntersectionExampleScenario.node[632].nic.phy80211p 	busyTime 	0
scalar IntersectionExampleScenario.node[632].nic.mac1609_4 	ReceivedUnicastPackets 	0
scalar IntersectionExampleScenario.node[632].nic.mac1609_4 	ReceivedBroadcasts 	0
scalar IntersectionExampleScenario.node[632].nic.mac1609_4 	SentPackets 	0
scalar IntersectionExampleScenario.node[632].nic.mac1609_4 	SNIRLostPackets 	0
scalar IntersectionExampleScenario.node[632].nic.mac1609_4 	RXTXLostPackets 	0
scalar IntersectionExampleScenario.node[632].nic.mac1609_4 	TotalLostPackets 	0
scalar IntersectionExampleScenario.node[632].nic.mac1609_4 	DroppedPacketsInMac 	0
scalar IntersectionExampleScenario.node[632].nic.mac1609_4 	TooLittleTime 	0
scalar IntersectionExampleScenario.node[632].nic.mac1609_4 	TimesIntoBackoff 	0
scalar IntersectionExampleScenario.node[632].nic.mac1609_4 	SlotsBackoff 	0
scalar IntersectionExampleScenario.node[632].nic.mac1609_4 	NumInternalContention 	0
scalar IntersectionExampleScenario.node[632].nic.mac1609_4 	totalBusyTime 	0
scalar IntersectionExampleScenario.node[632].veinsmobility 	startTime 	1774
scalar IntersectionExampleScenario.node[632].veinsmobility 	totalTime 	26
scalar IntersectionExampleScenario.node[632].veinsmobility 	stopTime 	1800
scalar IntersectionExampleScenario.node[632].veinsmobility 	minSpeed 	5.6500000953674
scalar IntersectionExampleScenario.node[632].veinsmobility 	maxSpeed 	15.64999961853
scalar IntersectionExampleScenario.node[632].veinsmobility 	totalDistance 	329.9592699129
scalar IntersectionExampleScenario.node[632].veinsmobility 	totalCO2Emission 	87.293940204312
scalar IntersectionExampleScenario.node[633].appl 	VehicleRemoved 	0
scalar IntersectionExampleScenario.node[633].appl 	ArrivedAtDest 	0
scalar IntersectionExampleScenario.node[633].appl 	IntersectionEnterTime 	1775.25
scalar IntersectionExampleScenario.node[633].appl 	IntersectionExitTime 	1798.0041261441
scalar IntersectionExampleScenario.node[633].appl 	NumberOfCollisions 	0
scalar IntersectionExampleScenario.node[633].nic.phy80211p 	busyTime 	0
scalar IntersectionExampleScenario.node[633].nic.mac1609_4 	ReceivedUnicastPackets 	0
scalar IntersectionExampleScenario.node[633].nic.mac1609_4 	ReceivedBroadcasts 	0
scalar IntersectionExampleScenario.node[633].nic.mac1609_4 	SentPackets 	0
scalar IntersectionExampleScenario.node[633].nic.mac1609_4 	SNIRLostPackets 	0
scalar IntersectionExampleScenario.node[633].nic.mac1609_4 	RXTXLostPackets 	0
scalar IntersectionExampleScenario.node[633].nic.mac1609_4 	TotalLostPackets 	0
scalar IntersectionExampleScenario.node[633].nic.mac1609_4 	DroppedPacketsInMac 	0
scalar IntersectionExampleScenario.node[633].nic.mac1609_4 	TooLittleTime 	0
scalar IntersectionExampleScenario.node[633].nic.mac1609_4 	TimesIntoBackoff 	0
scalar IntersectionExampleScenario.node[633].nic.mac1609_4 	SlotsBackoff 	0
scalar IntersectionExampleScenario.node[633].nic.mac1609_4 	NumInternalContention 	0
scalar IntersectionExampleScenario.node[633].nic.mac1609_4 	totalBusyTime 	0
scalar IntersectionExampleScenario.node[633].veinsmobility 	startTime 	1775.25
scalar IntersectionExampleScenario.node[633].veinsmobility 	totalTime 	24.75
scalar IntersectionExampleScenario.node[633].veinsmobility 	stopTime 	1800
scalar IntersectionExampleScenario.node[633].veinsmobility 	minSpeed 	5.6500000953674
scalar IntersectionExampleScenario.node[633].veinsmobility 	maxSpeed 	15.64999961853
scalar IntersectionExampleScenario.node[633].veinsmobility 	totalDistance 	339.38282012939
scalar IntersectionExampleScenario.node[633].veinsmobility 	totalCO2Emission 	88.244455031558
scalar IntersectionExampleScenario.node[634].appl 	VehicleRemoved 	0
scalar IntersectionExampleScenario.node[634].appl 	ArrivedAtDest 	0
scalar IntersectionExampleScenario.node[634].appl 	IntersectionEnterTime 	1777
scalar IntersectionExampleScenario.node[634].appl 	IntersectionExitTime 	-1
scalar IntersectionExampleScenario.node[634].appl 	NumberOfCollisions 	0
scalar IntersectionExampleScenario.node[634].nic.phy80211p 	busyTime 	0
scalar IntersectionExampleScenario.node[634].nic.mac1609_4 	ReceivedUnicastPackets 	0
scalar IntersectionExampleScenario.node[634].nic.mac1609_4 	ReceivedBroadcasts 	0
scalar IntersectionExampleScenario.node[634].nic.mac1609_4 	SentPackets 	0
scalar IntersectionExampleScenario.node[634].nic.mac1609_4 	SNIRLostPackets 	0
scalar IntersectionExampleScenario.node[634].nic.mac1609_4 	RXTXLostPackets 	0
scalar IntersectionExampleScenario.node[634].nic.mac1609_4 	TotalLostPackets 	0
scalar IntersectionExampleScenario.node[634].nic.mac1609_4 	DroppedPacketsInMac 	0
scalar IntersectionExampleScenario.node[634].nic.mac1609_4 	TooLittleTime 	0
scalar IntersectionExampleScenario.node[634].nic.mac1609_4 	TimesIntoBackoff 	0
scalar IntersectionExampleScenario.node[634].nic.mac1609_4 	SlotsBackoff 	0
scalar IntersectionExampleScenario.node[634].nic.mac1609_4 	NumInternalContention 	0
scalar IntersectionExampleScenario.node[634].nic.mac1609_4 	totalBusyTime 	0
scalar IntersectionExampleScenario.node[634].veinsmobility 	startTime 	1777
scalar IntersectionExampleScenario.node[634].veinsmobility 	totalTime 	23
scalar IntersectionExampleScenario.node[634].veinsmobility 	stopTime 	1800
scalar IntersectionExampleScenario.node[634].veinsmobility 	minSpeed 	0
scalar IntersectionExampleScenario.node[634].veinsmobility 	maxSpeed 	15.241248130798
scalar IntersectionExampleScenario.node[634].veinsmobility 	totalDistance 	300.19686889648
scalar IntersectionExampleScenario.node[634].veinsmobility 	totalCO2Emission 	68.537999008439
scalar IntersectionExampleScenario.node[635].appl 	VehicleRemoved 	0
scalar IntersectionExampleScenario.node[635].appl 	ArrivedAtDest 	0
scalar IntersectionExampleScenario.node[635].appl 	IntersectionEnterTime 	1779
scalar IntersectionExampleScenario.node[635].appl 	IntersectionExitTime 	-1
scalar IntersectionExampleScenario.node[635].appl 	NumberOfCollisions 	0
scalar IntersectionExampleScenario.node[635].nic.phy80211p 	busyTime 	0
scalar IntersectionExampleScenario.node[635].nic.mac1609_4 	ReceivedUnicastPackets 	0
scalar IntersectionExampleScenario.node[635].nic.mac1609_4 	ReceivedBroadcasts 	0
scalar IntersectionExampleScenario.node[635].nic.mac1609_4 	SentPackets 	0
scalar IntersectionExampleScenario.node[635].nic.mac1609_4 	SNIRLostPackets 	0
scalar IntersectionExampleScenario.node[635].nic.mac1609_4 	RXTXLostPackets 	0
scalar IntersectionExampleScenario.node[635].nic.mac1609_4 	TotalLostPackets 	0
scalar IntersectionExampleScenario.node[635].nic.mac1609_4 	DroppedPacketsInMac 	0
scalar IntersectionExampleScenario.node[635].nic.mac1609_4 	TooLittleTime 	0
scalar IntersectionExampleScenario.node[635].nic.mac1609_4 	TimesIntoBackoff 	0
scalar IntersectionExampleScenario.node[635].nic.mac1609_4 	SlotsBackoff 	0
scalar IntersectionExampleScenario.node[635].nic.mac1609_4 	NumInternalContention 	0
scalar IntersectionExampleScenario.node[635].nic.mac1609_4 	totalBusyTime 	0
scalar IntersectionExampleScenario.node[635].veinsmobility 	startTime 	1779
scalar IntersectionExampleScenario.node[635].veinsmobility 	totalTime 	21
scalar IntersectionExampleScenario.node[635].veinsmobility 	stopTime 	1800
scalar IntersectionExampleScenario.node[635].veinsmobility 	minSpeed 	4.0238161087036
scalar IntersectionExampleScenario.node[635].veinsmobility 	maxSpeed 	15.02499961853
scalar IntersectionExampleScenario.node[635].veinsmobility 	totalDistance 	235.28826904297
scalar IntersectionExampleScenario.node[635].veinsmobility 	totalCO2Emission 	60.013108600323
scalar IntersectionExampleScenario.node[636].appl 	VehicleRemoved 	0
scalar IntersectionExampleScenario.node[636].appl 	ArrivedAtDest 	0
scalar IntersectionExampleScenario.node[636].appl 	IntersectionEnterTime 	1787.5
scalar IntersectionExampleScenario.node[636].appl 	IntersectionExitTime 	-1
scalar IntersectionExampleScenario.node[636].appl 	NumberOfCollisions 	0
scalar IntersectionExampleScenario.node[636].nic.phy80211p 	busyTime 	0
scalar IntersectionExampleScenario.node[636].nic.mac1609_4 	ReceivedUnicastPackets 	0
scalar IntersectionExampleScenario.node[636].nic.mac1609_4 	ReceivedBroadcasts 	0
scalar IntersectionExampleScenario.node[636].nic.mac1609_4 	SentPackets 	0
scalar IntersectionExampleScenario.node[636].nic.mac1609_4 	SNIRLostPackets 	0
scalar IntersectionExampleScenario.node[636].nic.mac1609_4 	RXTXLostPackets 	0
scalar IntersectionExampleScenario.node[636].nic.mac1609_4 	TotalLostPackets 	0
scalar IntersectionExampleScenario.node[636].nic.mac1609_4 	DroppedPacketsInMac 	0
scalar IntersectionExampleScenario.node[636].nic.mac1609_4 	TooLittleTime 	0
scalar IntersectionExampleScenario.node[636].nic.mac1609_4 	TimesIntoBackoff 	0
scalar IntersectionExampleScenario.node[636].nic.mac1609_4 	SlotsBackoff 	0
scalar IntersectionExampleScenario.node[636].nic.mac1609_4 	NumInternalContention 	0
scalar IntersectionExampleScenario.node[636].nic.mac1609_4 	totalBusyTime 	0
scalar IntersectionExampleScenario.node[636].veinsmobility 	startTime 	1787.5
scalar IntersectionExampleScenario.node[636].veinsmobility 	totalTime 	12.5
scalar IntersectionExampleScenario.node[636].veinsmobility 	stopTime 	1800
scalar IntersectionExampleScenario.node[636].veinsmobility 	minSpeed 	5.6500000953674
scalar IntersectionExampleScenario.node[636].veinsmobility 	maxSpeed 	15.02499961853
scalar IntersectionExampleScenario.node[636].veinsmobility 	totalDistance 	163.5740737915
scalar IntersectionExampleScenario.node[636].veinsmobility 	totalCO2Emission 	46.735571526563
scalar IntersectionExampleScenario.node[637].appl 	VehicleRemoved 	0
scalar IntersectionExampleScenario.node[637].appl 	ArrivedAtDest 	0
scalar IntersectionExampleScenario.node[637].appl 	IntersectionEnterTime 	1790
scalar IntersectionExampleScenario.node[637].appl 	IntersectionExitTime 	-1
scalar IntersectionExampleScenario.node[637].appl 	NumberOfCollisions 	0
scalar IntersectionExampleScenario.node[637].nic.phy80211p 	busyTime 	0
scalar IntersectionExampleScenario.node[637].nic.mac1609_4 	ReceivedUnicastPackets 	0
scalar IntersectionExampleScenario.node[637].nic.mac1609_4 	ReceivedBroadcasts 	0
scalar IntersectionExampleScenario.node[637].nic.mac1609_4 	SentPackets 	0
scalar IntersectionExampleScenario.node[637].nic.mac1609_4 	SNIRLostPackets 	0
scalar IntersectionExampleScenario.node[637].nic.mac1609_4 	RXTXLostPackets 	0
scalar IntersectionExampleScenario.node[637].nic.mac1609_4 	TotalLostPackets 	0
scalar IntersectionExampleScenario.node[637].nic.mac1609_4 	DroppedPacketsInMac 	0
scalar IntersectionExampleScenario.node[637].nic.mac1609_4 	TooLittleTime 	0
scalar IntersectionExampleScenario.node[637].nic.mac1609_4 	TimesIntoBackoff 	0
scalar IntersectionExampleScenario.node[637].nic.mac1609_4 	SlotsBackoff 	0
scalar IntersectionExampleScenario.node[637].nic.mac1609_4 	NumInternalContention 	0
scalar IntersectionExampleScenario.node[637].nic.mac1609_4 	totalBusyTime 	0
scalar IntersectionExampleScenario.node[637].veinsmobility 	startTime 	1790
scalar IntersectionExampleScenario.node[637].veinsmobility 	totalTime 	10
scalar IntersectionExampleScenario.node[637].veinsmobility 	stopTime 	1800
scalar IntersectionExampleScenario.node[637].veinsmobility 	minSpeed 	5.6500000953674
scalar IntersectionExampleScenario.node[637].veinsmobility 	maxSpeed 	16.003120422363
scalar IntersectionExampleScenario.node[637].veinsmobility 	totalDistance 	134.30386352539
scalar IntersectionExampleScenario.node[637].veinsmobility 	totalCO2Emission 	47.513037657364
scalar IntersectionExampleScenario.node[638].appl 	VehicleRemoved 	0
scalar IntersectionExampleScenario.node[638].appl 	ArrivedAtDest 	0
scalar IntersectionExampleScenario.node[638].appl 	IntersectionEnterTime 	1792.25
scalar IntersectionExampleScenario.node[638].appl 	IntersectionExitTime 	-1
scalar IntersectionExampleScenario.node[638].appl 	NumberOfCollisions 	0
scalar IntersectionExampleScenario.node[638].nic.phy80211p 	busyTime 	0
scalar IntersectionExampleScenario.node[638].nic.mac1609_4 	ReceivedUnicastPackets 	0
scalar IntersectionExampleScenario.node[638].nic.mac1609_4 	ReceivedBroadcasts 	0
scalar IntersectionExampleScenario.node[638].nic.mac1609_4 	SentPackets 	0
scalar IntersectionExampleScenario.node[638].nic.mac1609_4 	SNIRLostPackets 	0
scalar IntersectionExampleScenario.node[638].nic.mac1609_4 	RXTXLostPackets 	0
scalar IntersectionExampleScenario.node[638].nic.mac1609_4 	TotalLostPackets 	0
scalar IntersectionExampleScenario.node[638].nic.mac1609_4 	DroppedPacketsInMac 	0
scalar IntersectionExampleScenario.node[638].nic.mac1609_4 	TooLittleTime 	0
scalar IntersectionExampleScenario.node[638].nic.mac1609_4 	TimesIntoBackoff 	0
scalar IntersectionExampleScenario.node[638].nic.mac1609_4 	SlotsBackoff 	0
scalar IntersectionExampleScenario.node[638].nic.mac1609_4 	NumInternalContention 	0
scalar IntersectionExampleScenario.node[638].nic.mac1609_4 	totalBusyTime 	0
scalar IntersectionExampleScenario.node[638].veinsmobility 	startTime 	1792.25
scalar IntersectionExampleScenario.node[638].veinsmobility 	totalTime 	7.75
scalar IntersectionExampleScenario.node[638].veinsmobility 	stopTime 	1800
scalar IntersectionExampleScenario.node[638].veinsmobility 	minSpeed 	5.6500000953674
scalar IntersectionExampleScenario.node[638].veinsmobility 	maxSpeed 	15.64999961853
scalar IntersectionExampleScenario.node[638].veinsmobility 	totalDistance 	98.620666503906
scalar IntersectionExampleScenario.node[638].veinsmobility 	totalCO2Emission 	41.197766156246
scalar IntersectionExampleScenario.node[639].appl 	VehicleRemoved 	0
scalar IntersectionExampleScenario.node[639].appl 	ArrivedAtDest 	0
scalar IntersectionExampleScenario.node[639].appl 	IntersectionEnterTime 	1792.5
scalar IntersectionExampleScenario.node[639].appl 	IntersectionExitTime 	-1
scalar IntersectionExampleScenario.node[639].appl 	NumberOfCollisions 	0
scalar IntersectionExampleScenario.node[639].nic.phy80211p 	busyTime 	0
scalar IntersectionExampleScenario.node[639].nic.mac1609_4 	ReceivedUnicastPackets 	0
scalar IntersectionExampleScenario.node[639].nic.mac1609_4 	ReceivedBroadcasts 	0
scalar IntersectionExampleScenario.node[639].nic.mac1609_4 	SentPackets 	0
scalar IntersectionExampleScenario.node[639].nic.mac1609_4 	SNIRLostPackets 	0
scalar IntersectionExampleScenario.node[639].nic.mac1609_4 	RXTXLostPackets 	0
scalar IntersectionExampleScenario.node[639].nic.mac1609_4 	TotalLostPackets 	0
scalar IntersectionExampleScenario.node[639].nic.mac1609_4 	DroppedPacketsInMac 	0
scalar IntersectionExampleScenario.node[639].nic.mac1609_4 	TooLittleTime 	0
scalar IntersectionExampleScenario.node[639].nic.mac1609_4 	TimesIntoBackoff 	0
scalar IntersectionExampleScenario.node[639].nic.mac1609_4 	SlotsBackoff 	0
scalar IntersectionExampleScenario.node[639].nic.mac1609_4 	NumInternalContention 	0
scalar IntersectionExampleScenario.node[639].nic.mac1609_4 	totalBusyTime 	0
scalar IntersectionExampleScenario.node[639].veinsmobility 	startTime 	1792.5
scalar IntersectionExampleScenario.node[639].veinsmobility 	totalTime 	7.5
scalar IntersectionExampleScenario.node[639].veinsmobility 	stopTime 	1800
scalar IntersectionExampleScenario.node[639].veinsmobility 	minSpeed 	5.6500000953674
scalar IntersectionExampleScenario.node[639].veinsmobility 	maxSpeed 	14.985621452332
scalar IntersectionExampleScenario.node[639].veinsmobility 	totalDistance 	87.306701660156
scalar IntersectionExampleScenario.node[639].veinsmobility 	totalCO2Emission 	37.308670363859
