file 30836079 1591394189                                        
version 2
run nodebug-44-20200605-17:50:28-20012
attr configname nodebug
attr datetime 20200605-17:50:28
attr experiment nodebug
attr inifile omnetpp.ini
attr iterationvars ""
attr iterationvars2 $repetition=44
attr measurement ""
attr network "\"org.car2x.veins.modules.application.ExtTraCIScenarioManagerLaunchd.IntersectionExampleScenario\""
attr processid 20012
attr repetition 44
attr replication #44
attr resultdir results
attr runnumber 44
attr seedset 44
param **.coreDebug false
param **.debug false
param *.**.nic.mac1609_4.bitrate 18Mbps
param *.**.nic.mac1609_4.txPower 20mW
param *.**.nic.mac1609_4.useServiceChannel false
param *.**.nic.phy80211p.analogueModels "xmldoc(\"config.xml\")"
param *.**.nic.phy80211p.decider "xmldoc(\"config.xml\")"
param *.**.nic.phy80211p.sensitivity -89dBm
param *.**.nic.phy80211p.thermalNoise -110dBm
param *.**.nic.phy80211p.usePropagationDelay true
param *.**.nic.phy80211p.useThermalNoise true
param *.annotations.draw false
param *.connectionManager.alpha 2.0
param *.connectionManager.carrierFrequency "5.890e9 Hz"
param *.connectionManager.pMax 20mW
param *.connectionManager.sat -89dBm
param *.connectionManager.sendDirect true
param *.manager.autoShutdown true
param *.manager.host "\"localhost\""
param *.manager.launchConfig "xmldoc(\"paramics.launchd.xml\")"
param *.manager.margin 25
param *.manager.moduleDisplayString "\"\""
param *.manager.moduleName "\"node\""
param *.manager.moduleType "\"org.car2x.veins.nodes.Car\""
param *.manager.port 9999
param *.manager.updateInterval 250ms
param *.node[*0].veinsmobility.accidentCount 0
param *.node[*0].veinsmobility.accidentDuration 30s
param *.node[*0].veinsmobility.accidentStart 75s
param *.node[*].appl.LiderSelectZoneRadio 55.0
param *.node[*].appl.ShareDataZoneRadio 110.0
param *.node[*].appl.TiempoSemaforo 30.0
param *.node[*].appl.beaconInterval 1s
param *.node[*].appl.beaconPriority 3
param *.node[*].appl.dataOnSch false
param *.node[*].appl.dataPriority 2
param *.node[*].appl.debug false
param *.node[*].appl.headerLength "256 bit"
param *.node[*].appl.maxOffset 0.005s
param *.node[*].appl.sendBeacons false
param *.node[*].appl.sendData true
param *.node[*].applType "\"Dummy\""
param *.node[*].mobilityType "\"TraCIMobility\""
param *.node[*].mobilityType.debug true
param *.node[*].veinsmobility.x 0
param *.node[*].veinsmobility.y 0
param *.node[*].veinsmobility.z 1.895
param *.node[*].veinsmobilityType "\"org.car2x.veins.modules.mobility.traci.TraCIMobility\""
param *.node[*].veinsmobilityType.debug true
param *.playgroundSizeX 8500m
param *.playgroundSizeY 8500m
param *.playgroundSizeZ 50m
param *.world.use2D false
param *.world.useTorus false

vector 55906  IntersectionExampleScenario.manager  vehiclesinsim  ETV
attr type  int
vector 55907  IntersectionExampleScenario.manager  realtime  ETV
attr type  int
attr unit  s
vector 55910  IntersectionExampleScenario.node[0].veinsmobility  posx  ETV
vector 55911  IntersectionExampleScenario.node[0].veinsmobility  posy  ETV
vector 55912  IntersectionExampleScenario.node[0].veinsmobility  speed  ETV
vector 55913  IntersectionExampleScenario.node[0].veinsmobility  acceleration  ETV
vector 55914  IntersectionExampleScenario.node[0].veinsmobility  co2emission  ETV
vector 55917  IntersectionExampleScenario.node[1].veinsmobility  posx  ETV
vector 55918  IntersectionExampleScenario.node[1].veinsmobility  posy  ETV
vector 55924  IntersectionExampleScenario.node[2].veinsmobility  posx  ETV
vector 55925  IntersectionExampleScenario.node[2].veinsmobility  posy  ETV
vector 55919  IntersectionExampleScenario.node[1].veinsmobility  speed  ETV
vector 55920  IntersectionExampleScenario.node[1].veinsmobility  acceleration  ETV
vector 55921  IntersectionExampleScenario.node[1].veinsmobility  co2emission  ETV
vector 55926  IntersectionExampleScenario.node[2].veinsmobility  speed  ETV
vector 55927  IntersectionExampleScenario.node[2].veinsmobility  acceleration  ETV
vector 55928  IntersectionExampleScenario.node[2].veinsmobility  co2emission  ETV
vector 55931  IntersectionExampleScenario.node[3].veinsmobility  posx  ETV
vector 55932  IntersectionExampleScenario.node[3].veinsmobility  posy  ETV
vector 55933  IntersectionExampleScenario.node[3].veinsmobility  speed  ETV
vector 55934  IntersectionExampleScenario.node[3].veinsmobility  acceleration  ETV
vector 55935  IntersectionExampleScenario.node[3].veinsmobility  co2emission  ETV
vector 55938  IntersectionExampleScenario.node[4].veinsmobility  posx  ETV
vector 55939  IntersectionExampleScenario.node[4].veinsmobility  posy  ETV
vector 55940  IntersectionExampleScenario.node[4].veinsmobility  speed  ETV
vector 55941  IntersectionExampleScenario.node[4].veinsmobility  acceleration  ETV
vector 55942  IntersectionExampleScenario.node[4].veinsmobility  co2emission  ETV
vector 55945  IntersectionExampleScenario.node[5].veinsmobility  posx  ETV
vector 55946  IntersectionExampleScenario.node[5].veinsmobility  posy  ETV
vector 55947  IntersectionExampleScenario.node[5].veinsmobility  speed  ETV
vector 55952  IntersectionExampleScenario.node[6].veinsmobility  posx  ETV
vector 55953  IntersectionExampleScenario.node[6].veinsmobility  posy  ETV
vector 55948  IntersectionExampleScenario.node[5].veinsmobility  acceleration  ETV
vector 55949  IntersectionExampleScenario.node[5].veinsmobility  co2emission  ETV
vector 55954  IntersectionExampleScenario.node[6].veinsmobility  speed  ETV
vector 55955  IntersectionExampleScenario.node[6].veinsmobility  acceleration  ETV
vector 55956  IntersectionExampleScenario.node[6].veinsmobility  co2emission  ETV
vector 55959  IntersectionExampleScenario.node[7].veinsmobility  posx  ETV
vector 55960  IntersectionExampleScenario.node[7].veinsmobility  posy  ETV
vector 55961  IntersectionExampleScenario.node[7].veinsmobility  speed  ETV
vector 55962  IntersectionExampleScenario.node[7].veinsmobility  acceleration  ETV
vector 55963  IntersectionExampleScenario.node[7].veinsmobility  co2emission  ETV
vector 55966  IntersectionExampleScenario.node[8].veinsmobility  posx  ETV
vector 55967  IntersectionExampleScenario.node[8].veinsmobility  posy  ETV
vector 55968  IntersectionExampleScenario.node[8].veinsmobility  speed  ETV
vector 55969  IntersectionExampleScenario.node[8].veinsmobility  acceleration  ETV
vector 55970  IntersectionExampleScenario.node[8].veinsmobility  co2emission  ETV
vector 55973  IntersectionExampleScenario.node[9].veinsmobility  posx  ETV
vector 55974  IntersectionExampleScenario.node[9].veinsmobility  posy  ETV
vector 55975  IntersectionExampleScenario.node[9].veinsmobility  speed  ETV
vector 55976  IntersectionExampleScenario.node[9].veinsmobility  acceleration  ETV
vector 55977  IntersectionExampleScenario.node[9].veinsmobility  co2emission  ETV
vector 55980  IntersectionExampleScenario.node[10].veinsmobility  posx  ETV
vector 55981  IntersectionExampleScenario.node[10].veinsmobility  posy  ETV
vector 55982  IntersectionExampleScenario.node[10].veinsmobility  speed  ETV
vector 55983  IntersectionExampleScenario.node[10].veinsmobility  acceleration  ETV
vector 55984  IntersectionExampleScenario.node[10].veinsmobility  co2emission  ETV
vector 55987  IntersectionExampleScenario.node[11].veinsmobility  posx  ETV
vector 55988  IntersectionExampleScenario.node[11].veinsmobility  posy  ETV
vector 55989  IntersectionExampleScenario.node[11].veinsmobility  speed  ETV
vector 55990  IntersectionExampleScenario.node[11].veinsmobility  acceleration  ETV
vector 55991  IntersectionExampleScenario.node[11].veinsmobility  co2emission  ETV
vector 55994  IntersectionExampleScenario.node[12].veinsmobility  posx  ETV
vector 55995  IntersectionExampleScenario.node[12].veinsmobility  posy  ETV
vector 55996  IntersectionExampleScenario.node[12].veinsmobility  speed  ETV
vector 55997  IntersectionExampleScenario.node[12].veinsmobility  acceleration  ETV
vector 55998  IntersectionExampleScenario.node[12].veinsmobility  co2emission  ETV
vector 56001  IntersectionExampleScenario.node[13].veinsmobility  posx  ETV
vector 56002  IntersectionExampleScenario.node[13].veinsmobility  posy  ETV
vector 56003  IntersectionExampleScenario.node[13].veinsmobility  speed  ETV
vector 56004  IntersectionExampleScenario.node[13].veinsmobility  acceleration  ETV
vector 56005  IntersectionExampleScenario.node[13].veinsmobility  co2emission  ETV
vector 56008  IntersectionExampleScenario.node[14].veinsmobility  posx  ETV
vector 56009  IntersectionExampleScenario.node[14].veinsmobility  posy  ETV
vector 56010  IntersectionExampleScenario.node[14].veinsmobility  speed  ETV
vector 56011  IntersectionExampleScenario.node[14].veinsmobility  acceleration  ETV
vector 56012  IntersectionExampleScenario.node[14].veinsmobility  co2emission  ETV
55914	8901 4775 20 3108 3.75 41.5 152 0.973 11.990504229548 480.2542757949 2610.1349930128
55913	13676 4366 20 3108 3.75 41.5 152 -3.5095329284668 2.5 39.529638290405 206.13698907954
55912	18042 4672 17 3108 3.5 41.5 153 5.6500000953674 16.125 2221.3487768173 32954.776582804
55911	22714 4940 14 3108 3.25 41.5 154 235.78125 785.82187652588 80311.378608704 45988130.783733
55910	27654 4960 14 3108 3.25 41.5 154 483.14999389648 483.14999389648 74405.099060059 35948823.156735
vector 56015  IntersectionExampleScenario.node[15].veinsmobility  posx  ETV
vector 56016  IntersectionExampleScenario.node[15].veinsmobility  posy  ETV
vector 56017  IntersectionExampleScenario.node[15].veinsmobility  speed  ETV
vector 56018  IntersectionExampleScenario.node[15].veinsmobility  acceleration  ETV
vector 56019  IntersectionExampleScenario.node[15].veinsmobility  co2emission  ETV
vector 56022  IntersectionExampleScenario.node[16].veinsmobility  posx  ETV
vector 56023  IntersectionExampleScenario.node[16].veinsmobility  posy  ETV
vector 56024  IntersectionExampleScenario.node[16].veinsmobility  speed  ETV
vector 56025  IntersectionExampleScenario.node[16].veinsmobility  acceleration  ETV
vector 56026  IntersectionExampleScenario.node[16].veinsmobility  co2emission  ETV
vector 56029  IntersectionExampleScenario.node[17].veinsmobility  posx  ETV
vector 56030  IntersectionExampleScenario.node[17].veinsmobility  posy  ETV
vector 56031  IntersectionExampleScenario.node[17].veinsmobility  speed  ETV
vector 56032  IntersectionExampleScenario.node[17].veinsmobility  acceleration  ETV
vector 56033  IntersectionExampleScenario.node[17].veinsmobility  co2emission  ETV
vector 56036  IntersectionExampleScenario.node[18].veinsmobility  posx  ETV
vector 56037  IntersectionExampleScenario.node[18].veinsmobility  posy  ETV
vector 56038  IntersectionExampleScenario.node[18].veinsmobility  speed  ETV
vector 56039  IntersectionExampleScenario.node[18].veinsmobility  acceleration  ETV
vector 56040  IntersectionExampleScenario.node[18].veinsmobility  co2emission  ETV
vector 56043  IntersectionExampleScenario.node[19].veinsmobility  posx  ETV
vector 56044  IntersectionExampleScenario.node[19].veinsmobility  posy  ETV
vector 56045  IntersectionExampleScenario.node[19].veinsmobility  speed  ETV
vector 56046  IntersectionExampleScenario.node[19].veinsmobility  acceleration  ETV
vector 56047  IntersectionExampleScenario.node[19].veinsmobility  co2emission  ETV
vector 56050  IntersectionExampleScenario.node[20].veinsmobility  posx  ETV
vector 56051  IntersectionExampleScenario.node[20].veinsmobility  posy  ETV
vector 56052  IntersectionExampleScenario.node[20].veinsmobility  speed  ETV
vector 56053  IntersectionExampleScenario.node[20].veinsmobility  acceleration  ETV
vector 56054  IntersectionExampleScenario.node[20].veinsmobility  co2emission  ETV
55942	35020 5104 279 4368 13 52.5 159 0.973 11.200708441096 456.73025792377 2199.7707180944
55941	40124 4559 279 4368 13 52.5 159 -3.609977722168 2.5 35.964826583862 173.546437922
55940	44683 5009 268 4368 12.75 52.5 160 5.6500000953674 15.02499961853 2217.4476184845 31251.739127246
55939	49692 5218 257 4368 12.5 52.5 161 184.17810058594 733.53187561035 72390.111404419 36815025.135914
55938	54910 5273 257 4368 12.5 52.5 161 486.85000610352 486.85000610352 78382.850982666 38160691.479322
vector 56057  IntersectionExampleScenario.node[21].veinsmobility  posx  ETV
vector 56058  IntersectionExampleScenario.node[21].veinsmobility  posy  ETV
vector 56059  IntersectionExampleScenario.node[21].veinsmobility  speed  ETV
vector 56060  IntersectionExampleScenario.node[21].veinsmobility  acceleration  ETV
vector 56061  IntersectionExampleScenario.node[21].veinsmobility  co2emission  ETV
55956	60584 5341 357 4818 14.5 56.25 168 0.973 11.36141391502 526.88507273614 2845.2731545044
55955	65925 4824 357 4818 14.5 56.25 168 -4.5 2.5 36.813589096069 311.4134123493
55954	70749 5231 342 4818 14.25 56.25 169 5.6500000953674 15.25 2264.9327030182 31584.071390209
55953	75980 5547 327 4818 14 56.25 170 163.88433837891 483.14999389648 66252.392333984 27907494.264249
55952	81527 5562 327 4818 14 56.25 170 486.85000610352 733.13645935059 91149.827178955 49831736.036801
vector 56064  IntersectionExampleScenario.node[22].veinsmobility  posx  ETV
vector 56065  IntersectionExampleScenario.node[22].veinsmobility  posy  ETV
vector 56066  IntersectionExampleScenario.node[22].veinsmobility  speed  ETV
vector 56067  IntersectionExampleScenario.node[22].veinsmobility  acceleration  ETV
vector 56068  IntersectionExampleScenario.node[22].veinsmobility  co2emission  ETV
55998	87490 4672 994 5078 22.25 58.5 146 0.973 11.54047740176 511.14699162039 2679.3908197741
55997	92162 4633 994 5078 22.25 58.5 146 -3.2764358520508 2.5 44.112981796265 207.82709450205
55996	96795 4616 967 5078 22 58.5 147 5.6500000953674 16.749908447266 2219.651017189 34447.63550674
55995	101411 4850 940 5078 21.75 58.5 148 184.17810058594 733.4571685791 65936.22164917 33313435.63901
55994	106261 4881 940 5078 21.75 58.5 148 486.85000610352 486.85000610352 72053.80090332 35079393.409563
56005	111142 5107 1427 5917 26.25 65.75 159 0.973 11.450879080643 482.87778675641 2499.9324381627
56004	116249 4590 1427 5917 26.25 65.75 159 -3.3367309570312 2.5 37.15309715271 226.39588837207
56003	120839 4999 1400 5917 26 65.75 160 5.6500000953674 15.375 2202.6555013657 31161.428047325
56002	125838 5307 1372 5917 25.75 65.75 161 483.13882446289 785.82187652588 92099.8229599 54476754.214058
56001	131145 5304 1372 5917 25.75 65.75 161 483.14999389648 732.02966308594 86273.495391846 47191347.420942
55921	136449 6966 56 6052 6.25 67 244 0.973 11.648172402475 613.14252980001 2974.9072899974
55920	143415 6309 56 6052 6.25 67 244 -7.7750906944275 4 38.511121749878 476.52721114425
55919	149724 6611 49 6052 6 67 245 0 15.64999961853 2186.543571353 30924.021030557
55918	156335 8018 44 6052 5.75 67 246 483.14999389648 734.23628234863 127306.57498169 67006305.510914
55917	164353 8002 44 6052 5.75 67 246 184.17810058594 486.85000610352 104272.84103394 46269745.833057
55963	172355 6571 436 6367 15.75 70 218 0.973 11.54047740176 603.51534069757 2880.3694188525
55962	178926 6701 436 6367 15.75 70 218 -4.5 2.5 41.057416915894 378.19791814974
55961	185627 7006 419 6367 15.5 70 219 0 15.941807746887 2220.4804710522 30296.844149469
55960	192633 7231 402 6367 15.25 70 220 483.14999389648 483.14999389648 106292.99865723 51355461.652478
55959	199864 7191 402 6367 15.25 70 220 184.17810058594 734.35968017578 98354.151199341 48065972.40139
55935	207055 7397 158 6392 9.75 70.25 243 0.973 10.756497587458 564.54886252322 2405.4798547949
55934	214452 7514 158 6392 9.75 70.25 243 -3.8013129234314 2.5 32.569761276245 325.23775136206
55933	221966 7580 149 6392 9.5 70.25 244 0 14.39999961853 2226.2196971104 27842.964502962
55932	229546 7990 140 6392 9.25 70.25 245 235.49206542969 483.14999389648 109282.6960144 49908876.490534
55931	237536 7988 140 6392 9.25 70.25 245 174.53436279297 483.14999389648 101221.07226562 44032547.902727
vector 56071  IntersectionExampleScenario.node[23].veinsmobility  posx  ETV
vector 56072  IntersectionExampleScenario.node[23].veinsmobility  posy  ETV
vector 56073  IntersectionExampleScenario.node[23].veinsmobility  speed  ETV
vector 56074  IntersectionExampleScenario.node[23].veinsmobility  acceleration  ETV
vector 56075  IntersectionExampleScenario.node[23].veinsmobility  co2emission  ETV
55970	245925 6824 576 6718 17.75 73.5 224 0.973 11.200708441096 614.06841500744 2862.3388464298
55969	252749 7071 576 6718 17.75 73.5 224 -4.5 2.5 39.869169235229 479.7088934968
55968	259820 7075 557 6718 17.5 73.5 225 0 15.666266441345 2261.8937019035 30137.141958896
55967	266895 7431 538 6718 17.25 73.5 226 236.18640136719 483.14999389648 101074.4234314 46236730.266194
55966	274326 7394 538 6718 17.25 73.5 226 166.078125 483.14999389648 91478.386932373 39177229.982979
vector 56078  IntersectionExampleScenario.node[24].veinsmobility  posx  ETV
vector 56079  IntersectionExampleScenario.node[24].veinsmobility  posy  ETV
vector 56080  IntersectionExampleScenario.node[24].veinsmobility  speed  ETV
vector 56081  IntersectionExampleScenario.node[24].veinsmobility  acceleration  ETV
vector 56082  IntersectionExampleScenario.node[24].veinsmobility  co2emission  ETV
vector 56085  IntersectionExampleScenario.node[25].veinsmobility  posx  ETV
vector 56086  IntersectionExampleScenario.node[25].veinsmobility  posy  ETV
vector 56087  IntersectionExampleScenario.node[25].veinsmobility  speed  ETV
vector 56088  IntersectionExampleScenario.node[25].veinsmobility  acceleration  ETV
vector 56089  IntersectionExampleScenario.node[25].veinsmobility  co2emission  ETV
56019	282522 4778 3312 7423 43.5 80.5 149 0.973 12.099024792222 488.62484249694 2757.5086340594
56018	287300 4447 3312 7423 43.5 80.5 149 -3.7545585632324 2.5 41.057416915894 220.15223558387
56017	291747 4700 3285 7423 43.25 80.5 150 5.6500000953674 16.27499961853 2213.4851999283 33462.212550292
56016	296447 4982 3258 7423 43 80.5 151 483.14999389648 483.14999389648 72955.649078369 35248521.406928
56015	301429 4952 3258 7423 43 80.5 151 184.17810058594 732.13882446289 67522.463638306 34185405.8791
vector 56092  IntersectionExampleScenario.node[26].veinsmobility  posx  ETV
vector 56093  IntersectionExampleScenario.node[26].veinsmobility  posy  ETV
vector 56094  IntersectionExampleScenario.node[26].veinsmobility  speed  ETV
vector 56095  IntersectionExampleScenario.node[26].veinsmobility  acceleration  ETV
vector 56096  IntersectionExampleScenario.node[26].veinsmobility  co2emission  ETV
vector 56099  IntersectionExampleScenario.node[27].veinsmobility  posx  ETV
vector 56100  IntersectionExampleScenario.node[27].veinsmobility  posy  ETV
vector 56101  IntersectionExampleScenario.node[27].veinsmobility  speed  ETV
vector 56102  IntersectionExampleScenario.node[27].veinsmobility  acceleration  ETV
vector 56103  IntersectionExampleScenario.node[27].veinsmobility  co2emission  ETV
56026	307183 5211 3417 7937 44.5 85 163 0.973 11.810082123732 553.6033010983 3242.4371564498
56025	312394 4706 3417 7937 44.5 85 163 -4.5 2.5 39.699392318726 357.11709396888
56024	317100 5090 3390 7937 44.25 85 164 5.6500000953674 15.875 2266.0228128433 32782.708710657
56023	322190 5421 3363 7937 44 85 165 238.83319091797 483.14999389648 71821.569030762 32165119.320071
56022	327611 5409 3363 7937 44 85 165 162.00311279297 483.22607421875 64114.105773926 26980277.095327
vector 56106  IntersectionExampleScenario.node[28].veinsmobility  posx  ETV
vector 56107  IntersectionExampleScenario.node[28].veinsmobility  posy  ETV
vector 56108  IntersectionExampleScenario.node[28].veinsmobility  speed  ETV
vector 56113  IntersectionExampleScenario.node[29].veinsmobility  posx  ETV
vector 56114  IntersectionExampleScenario.node[29].veinsmobility  posy  ETV
vector 56109  IntersectionExampleScenario.node[28].veinsmobility  acceleration  ETV
vector 56110  IntersectionExampleScenario.node[28].veinsmobility  co2emission  ETV
vector 56115  IntersectionExampleScenario.node[29].veinsmobility  speed  ETV
vector 56116  IntersectionExampleScenario.node[29].veinsmobility  acceleration  ETV
vector 56117  IntersectionExampleScenario.node[29].veinsmobility  co2emission  ETV
56033	333822 5241 3664 8239 46.75 87.25 163 0.973 11.648172402475 521.0738069637 2918.4263902369
56032	339063 4780 3664 8239 46.75 87.25 163 -4.5 2.5 38.341367721558 254.97712632505
56031	343843 5168 3635 8239 46.5 87.25 164 5.6500000953674 15.64999961853 2337.040019989 33957.174904649
56030	349011 5446 3606 8239 46.25 87.25 165 483.14999389648 483.14999389648 79719.74899292 38516596.239358
56029	354457 5421 3606 8239 46.25 87.25 165 156.20465087891 734.93246459961 71908.518173218 36161149.286694
vector 56120  IntersectionExampleScenario.node[30].veinsmobility  posx  ETV
vector 56121  IntersectionExampleScenario.node[30].veinsmobility  posy  ETV
vector 56122  IntersectionExampleScenario.node[30].veinsmobility  speed  ETV
vector 56123  IntersectionExampleScenario.node[30].veinsmobility  acceleration  ETV
vector 56124  IntersectionExampleScenario.node[30].veinsmobility  co2emission  ETV
56047	360279 5308 3974 8685 49.25 90.75 167 0.973 11.810082123732 548.2289558141 3104.7957003112
56046	365587 4957 3974 8685 49.25 90.75 167 -4.5 2.5 39.529638290405 328.74028793266
56045	370544 5212 3941 8685 49 90.75 168 5.6500000953674 15.875 2309.5293369293 33211.225786091
56044	375756 5567 3908 8685 48.75 90.75 169 235.43182373047 483.14999389648 73517.618530273 32927464.636626
56043	381323 5550 3908 8685 48.75 90.75 169 154.59765625 483.22930908203 65303.095001221 27437440.145896
vector 56127  IntersectionExampleScenario.node[31].veinsmobility  posx  ETV
vector 56128  IntersectionExampleScenario.node[31].veinsmobility  posy  ETV
vector 56129  IntersectionExampleScenario.node[31].veinsmobility  speed  ETV
vector 56130  IntersectionExampleScenario.node[31].veinsmobility  acceleration  ETV
vector 56131  IntersectionExampleScenario.node[31].veinsmobility  co2emission  ETV
vector 56134  IntersectionExampleScenario.node[32].veinsmobility  posx  ETV
vector 56135  IntersectionExampleScenario.node[32].veinsmobility  posy  ETV
vector 56136  IntersectionExampleScenario.node[32].veinsmobility  speed  ETV
vector 56137  IntersectionExampleScenario.node[32].veinsmobility  acceleration  ETV
vector 56138  IntersectionExampleScenario.node[32].veinsmobility  co2emission  ETV
55928	387675 10368 63 10130 6.5 103.75 390 0.973 11.36141391502 736.97076973841 2931.0988478114
55927	398043 9270 63 10130 6.5 103.75 390 -8.6810245513916 4 36.134572982788 473.1830623113
55926	407313 9446 56 10130 6.25 103.75 391 0 15.25 2178.0970487595 29705.218555888
55925	416759 12800 49 10130 6 103.75 392 486.85000610352 733.67727661133 199349.32173157 102590613.42379
55924	429559 12854 49 10130 6 103.75 392 486.63604736328 785.82187652588 207641.35520172 112281907.03691
55949	442413 10196 327 10180 14 104.25 362 0.973 11.648172402475 720.7054727078 3060.1494520198
55948	452609 10253 327 10180 14 104.25 362 -3.7196736335754 2.5 38.511121749878 344.6665472298
55947	462862 10180 314 10180 13.75 104.25 363 0 15.64999961853 2214.3167734649 29866.770053268
55946	473042 12002 301 10180 13.5 104.25 364 486.85000610352 486.85000610352 177213.40222168 86276345.95325
55945	485044 11971 301 10180 13.5 104.25 364 236.99786376953 785.82187652588 186924.5187149 100150709.2746
vector 56141  IntersectionExampleScenario.node[33].veinsmobility  posx  ETV
vector 56142  IntersectionExampleScenario.node[33].veinsmobility  posy  ETV
vector 56143  IntersectionExampleScenario.node[33].veinsmobility  speed  ETV
vector 56144  IntersectionExampleScenario.node[33].veinsmobility  acceleration  ETV
vector 56145  IntersectionExampleScenario.node[33].veinsmobility  co2emission  ETV
vector 56148  IntersectionExampleScenario.node[34].veinsmobility  posx  ETV
vector 56149  IntersectionExampleScenario.node[34].veinsmobility  posy  ETV
vector 56155  IntersectionExampleScenario.node[35].veinsmobility  posx  ETV
vector 56156  IntersectionExampleScenario.node[35].veinsmobility  posy  ETV
vector 56150  IntersectionExampleScenario.node[34].veinsmobility  speed  ETV
vector 56151  IntersectionExampleScenario.node[34].veinsmobility  acceleration  ETV
vector 56152  IntersectionExampleScenario.node[34].veinsmobility  co2emission  ETV
vector 56157  IntersectionExampleScenario.node[35].veinsmobility  speed  ETV
55991	498049 10024 840 10412 20.75 106.5 344 0.973 11.90022389248 707.70392033436 3085.8342362539
55990	508073 10340 840 10412 20.75 106.5 344 -4.5 2.5000009536743 40.038900375366 379.39731407787
55989	518413 10278 815 10412 20.5 106.5 345 0 16 2077.4818050629 27364.896128114
55988	528691 11449 790 10412 20.25 106.5 346 235.82061767578 486.85000610352 160192.92474365 75349971.823095
55987	540140 11418 790 10412 20.25 106.5 346 483.14999389648 752.70781707764 184923.87463379 100333984.7424
vector 56158  IntersectionExampleScenario.node[35].veinsmobility  acceleration  ETV
vector 56159  IntersectionExampleScenario.node[35].veinsmobility  co2emission  ETV
55977	551727 10854 637 10579 18.5 108 359 0.973 11.54047740176 775.9496976438 3224.9247966026
55976	562581 11268 637 10579 18.5 108 359 -4.5 2.5 40.038900375366 537.63260881581
55975	573849 11309 616 10579 18.25 108 360 0 15.747110366821 2213.8450650675 28498.036657828
55974	585158 11949 595 10579 18 108 361 486.85000610352 486.85000610352 175752.85220337 85565277.167921
55973	597107 11915 595 10579 18 108 361 237.455078125 785.82187652588 190593.86299133 105075717.60029
vector 56162  IntersectionExampleScenario.node[36].veinsmobility  posx  ETV
vector 56163  IntersectionExampleScenario.node[36].veinsmobility  posy  ETV
vector 56164  IntersectionExampleScenario.node[36].veinsmobility  speed  ETV
vector 56169  IntersectionExampleScenario.node[37].veinsmobility  posx  ETV
vector 56170  IntersectionExampleScenario.node[37].veinsmobility  posy  ETV
vector 56165  IntersectionExampleScenario.node[36].veinsmobility  acceleration  ETV
vector 56166  IntersectionExampleScenario.node[36].veinsmobility  co2emission  ETV
vector 56176  IntersectionExampleScenario.node[38].veinsmobility  posx  ETV
vector 56177  IntersectionExampleScenario.node[38].veinsmobility  posy  ETV
vector 56171  IntersectionExampleScenario.node[37].veinsmobility  speed  ETV
vector 56172  IntersectionExampleScenario.node[37].veinsmobility  acceleration  ETV
vector 56173  IntersectionExampleScenario.node[37].veinsmobility  co2emission  ETV
vector 56178  IntersectionExampleScenario.node[38].veinsmobility  speed  ETV
vector 56179  IntersectionExampleScenario.node[38].veinsmobility  acceleration  ETV
vector 56180  IntersectionExampleScenario.node[38].veinsmobility  co2emission  ETV
vector 56183  IntersectionExampleScenario.node[39].veinsmobility  posx  ETV
vector 56184  IntersectionExampleScenario.node[39].veinsmobility  posy  ETV
vector 56185  IntersectionExampleScenario.node[39].veinsmobility  speed  ETV
55984	610457 11526 767 11076 20 112.25 370 0.973 11.36141391502 760.35861028355 2956.9679591765
55983	621983 12000 767 11076 20 112.25 370 -4.5 2.5 36.98334312439 471.99906667755
55982	633983 11858 744 11076 19.75 112.25 371 0 15.25 2269.0875263568 27885.101847516
55981	645841 12346 721 11076 19.5 112.25 372 486.85000610352 733.89808654785 189524.41818237 97749372.007087
55980	658187 12314 721 11076 19.5 112.25 372 486.69717407227 806.11563110352 206708.65259552 117409201.69265
vector 56186  IntersectionExampleScenario.node[39].veinsmobility  acceleration  ETV
vector 56187  IntersectionExampleScenario.node[39].veinsmobility  co2emission  ETV
56040	670670 8045 3784 11200 47.75 113.25 263 0.973 11.54047740176 627.10466466415 2970.7564234958
56039	678715 8408 3784 11200 47.75 113.25 263 -4.2493286132812 2.5 37.15309715271 350.41576609504
56038	687123 8553 3753 11200 47.5 113.25 264 0 15.5 2217.9704036154 28634.513126605
56037	695676 8844 3722 11200 47.25 113.25 265 486.85000610352 486.85000610352 129015.25161743 62811076.037393
56036	704520 8821 3722 11200 47.25 113.25 265 236.87768554688 785.82187652588 139785.10861969 77970212.20156
vector 56190  IntersectionExampleScenario.node[40].veinsmobility  posx  ETV
vector 56191  IntersectionExampleScenario.node[40].veinsmobility  posy  ETV
vector 56192  IntersectionExampleScenario.node[40].veinsmobility  speed  ETV
vector 56193  IntersectionExampleScenario.node[40].veinsmobility  acceleration  ETV
vector 56194  IntersectionExampleScenario.node[40].veinsmobility  co2emission  ETV
56054	713742 7819 4339 11681 52.25 117 260 0.973 10.756497587458 575.20226726184 2402.5688836122
56053	721561 7991 4339 11681 52.25 117 260 -4.2408142089844 2.5 32.909269332886 348.27049034494
56052	729552 8067 4309 11681 52 117 261 0 14.39999961853 2213.343479123 27470.253367402
56051	737619 8773 4278 11681 51.75 117 262 486.85000610352 486.85000610352 127554.70159912 62100007.252064
56050	746392 8744 4278 11681 51.75 117 262 237.38146972656 785.82187652588 138182.8657608 77334506.667251
vector 56197  IntersectionExampleScenario.node[41].veinsmobility  posx  ETV
vector 56198  IntersectionExampleScenario.node[41].veinsmobility  posy  ETV
vector 56199  IntersectionExampleScenario.node[41].veinsmobility  speed  ETV
56082	755368 5660 6844 11980 74.75 119.25 179 0.973 11.36141391502 571.93385709329 3230.2625144053
56081	761028 5570 6844 11980 74.75 119.25 179 -3.7482318878174 2.5 36.98334312439 392.86506059638
56080	766598 5780 6819 11980 74.5 119.25 180 5.6500000953674 15.25 2182.4740400314 28252.538027645
56079	772378 6096 6793 11980 74.25 119.25 181 486.85000610352 732.59523010254 96439.187896729 52361865.374065
56078	778474 6110 6793 11980 74.25 119.25 181 486.85000610352 785.82187652588 103512.18296051 60970063.128675
vector 56200  IntersectionExampleScenario.node[41].veinsmobility  acceleration  ETV
vector 56201  IntersectionExampleScenario.node[41].veinsmobility  co2emission  ETV
56089	784753 5189 7423 12258 80.5 121.25 164 0.973 11.36141391502 502.75792731792 2728.4567775651
56088	789942 5147 7423 12258 80.5 121.25 164 -4.5 2.5 39.020376205444 262.09171870691
56087	795089 5285 7396 12258 80.25 121.25 165 5.6500000953674 15.461810112 2178.2860569954 30087.127619934
56086	800374 5632 7369 12258 80 121.25 166 486.85000610352 731.8525390625 88839.817443848 48462671.408682
56085	806006 5634 7369 12258 80 121.25 166 486.85000610352 785.82187652588 95039.905189514 56155432.000181
vector 56204  IntersectionExampleScenario.node[42].veinsmobility  posx  ETV
vector 56205  IntersectionExampleScenario.node[42].veinsmobility  posy  ETV
vector 56206  IntersectionExampleScenario.node[42].veinsmobility  speed  ETV
vector 56207  IntersectionExampleScenario.node[42].veinsmobility  acceleration  ETV
vector 56208  IntersectionExampleScenario.node[42].veinsmobility  co2emission  ETV
vector 56211  IntersectionExampleScenario.node[43].veinsmobility  posx  ETV
vector 56212  IntersectionExampleScenario.node[43].veinsmobility  posy  ETV
vector 56213  IntersectionExampleScenario.node[43].veinsmobility  speed  ETV
vector 56214  IntersectionExampleScenario.node[43].veinsmobility  acceleration  ETV
vector 56215  IntersectionExampleScenario.node[43].veinsmobility  co2emission  ETV
56110	812442 4921 8034 12505 85.75 123 150 0.973 11.810082123732 514.44554672545 2950.0988176801
56109	817363 4617 8034 12505 85.75 123 150 -4.5 2.5 42.075933456421 308.47396183452
56108	821980 4831 8001 12505 85.5 123 151 5.6500000953674 16.20693397522 2074.984061718 30183.468503743
56107	826811 5189 7968 12505 85.25 123 152 486.85000610352 733.58236694336 81781.546401978 44875221.566996
56106	832000 5180 7968 12505 85.25 123 152 486.81246948242 757.84220123291 85339.622573853 49243514.949258
56096	837180 5496 7697 12801 83 125 169 0.973 11.466046057849 533.61576831093 2994.1834429419
56095	842676 5108 7697 12801 83 125 169 -4.5 2.5 38.850629806519 319.1072249852
56094	847784 5511 7668 12801 82.75 125 170 5.6500000953674 15.73699760437 2267.7118263245 31576.70047073
56093	853295 5820 7639 12801 82.5 125 171 237.10546875 486.85000610352 74925.974182129 33809356.123004
56092	859115 5818 7639 12801 82.5 125 171 482.9342956543 801.41563415527 100222.39976501 60983680.881219
vector 56218  IntersectionExampleScenario.node[44].veinsmobility  posx  ETV
vector 56219  IntersectionExampleScenario.node[44].veinsmobility  posy  ETV
vector 56220  IntersectionExampleScenario.node[44].veinsmobility  speed  ETV
vector 56221  IntersectionExampleScenario.node[44].veinsmobility  acceleration  ETV
vector 56222  IntersectionExampleScenario.node[44].veinsmobility  co2emission  ETV
56103	865334 5474 7875 12916 84.5 125.75 166 0.973 11.990504229548 503.18149262079 2585.2214151528
56102	870808 5483 7875 12916 84.5 125.75 166 -3.0762405395508 2.5 39.529638290405 188.40851082851
56101	876291 5462 7844 12916 84.25 125.75 167 5.6500000953674 16.125 2332.5374593735 33551.711841369
56100	881753 5742 7813 12916 84 125.75 168 486.85000610352 486.85000610352 81790.801025391 39819851.978423
56099	887495 5707 7813 12916 84 125.75 168 235.78704833984 813.91251373291 91334.940361023 54714168.806193
vector 56225  IntersectionExampleScenario.node[45].veinsmobility  posx  ETV
vector 56226  IntersectionExampleScenario.node[45].veinsmobility  posy  ETV
vector 56227  IntersectionExampleScenario.node[45].veinsmobility  speed  ETV
vector 56228  IntersectionExampleScenario.node[45].veinsmobility  acceleration  ETV
vector 56229  IntersectionExampleScenario.node[45].veinsmobility  co2emission  ETV
vector 56232  IntersectionExampleScenario.node[46].veinsmobility  posx  ETV
vector 56233  IntersectionExampleScenario.node[46].veinsmobility  posy  ETV
vector 56234  IntersectionExampleScenario.node[46].veinsmobility  speed  ETV
vector 56235  IntersectionExampleScenario.node[46].veinsmobility  acceleration  ETV
vector 56236  IntersectionExampleScenario.node[46].veinsmobility  co2emission  ETV
vector 56239  IntersectionExampleScenario.node[47].veinsmobility  posx  ETV
vector 56240  IntersectionExampleScenario.node[47].veinsmobility  posy  ETV
vector 56241  IntersectionExampleScenario.node[47].veinsmobility  speed  ETV
vector 56242  IntersectionExampleScenario.node[47].veinsmobility  acceleration  ETV
vector 56243  IntersectionExampleScenario.node[47].veinsmobility  co2emission  ETV
vector 56246  IntersectionExampleScenario.node[48].veinsmobility  posx  ETV
vector 56247  IntersectionExampleScenario.node[48].veinsmobility  posy  ETV
vector 56248  IntersectionExampleScenario.node[48].veinsmobility  speed  ETV
vector 56249  IntersectionExampleScenario.node[48].veinsmobility  acceleration  ETV
vector 56250  IntersectionExampleScenario.node[48].veinsmobility  co2emission  ETV
56131	894806 5178 9567 14555 98.5 136.5 153 0.973 12.099024792222 507.30575482299 2919.4910608435
56130	899984 4893 9567 14555 98.5 136.5 153 -3.4315872192383 2.5 40.887662887573 254.91801141194
56129	904877 5070 9540 14555 98.25 136.5 154 5.6500000953674 16.27499961853 2210.0126714706 32836.974628828
56128	909947 5391 9513 14555 98 136.5 155 236.57580566406 486.85000610352 67350.022064209 30190523.614341
56127	915338 5386 9513 14555 98 136.5 155 483.14999389648 785.82187652588 88658.458869934 52454298.577857
vector 56253  IntersectionExampleScenario.node[49].veinsmobility  posx  ETV
vector 56254  IntersectionExampleScenario.node[49].veinsmobility  posy  ETV
vector 56255  IntersectionExampleScenario.node[49].veinsmobility  speed  ETV
vector 56256  IntersectionExampleScenario.node[49].veinsmobility  acceleration  ETV
vector 56257  IntersectionExampleScenario.node[49].veinsmobility  co2emission  ETV
56068	921125 9854 4962 15486 57.5 145 351 0.973 11.90022389248 728.69503481279 3241.4291909734
56067	930979 8839 4962 15486 57.5 145 351 -8.1522989273071 4 39.529638290405 496.24731613443
56066	939818 9082 4933 15486 57.25 145 352 0 16 2214.945445776 31924.030306961
56065	948900 11968 4904 15486 57 145 353 184.17810058594 734.00184631348 162862.82652283 79287786.812625
56064	960868 11999 4904 15486 57 145 353 486.85000610352 486.85000610352 171858.05215454 83669093.740377
vector 56260  IntersectionExampleScenario.node[50].veinsmobility  posx  ETV
vector 56261  IntersectionExampleScenario.node[50].veinsmobility  posy  ETV
vector 56267  IntersectionExampleScenario.node[51].veinsmobility  posx  ETV
vector 56268  IntersectionExampleScenario.node[51].veinsmobility  posy  ETV
vector 56262  IntersectionExampleScenario.node[50].veinsmobility  speed  ETV
vector 56263  IntersectionExampleScenario.node[50].veinsmobility  acceleration  ETV
vector 56264  IntersectionExampleScenario.node[50].veinsmobility  co2emission  ETV
vector 56269  IntersectionExampleScenario.node[51].veinsmobility  speed  ETV
56012	973500 12554 1863 15584 30.25 146 464 0.973 11.200708441096 806.14791415269 2907.4340276376
56011	986054 11084 1863 15584 30.25 146 464 -7.0308933258057 4 35.285810470581 447.17397829001
56010	997138 11374 1834 15584 30 146 465 0 15.02499961853 2225.6208837032 30149.001642604
56009	1008512 15726 1805 15584 29.75 146 466 483.14999389648 792.02188110352 244893.23168945 131223770.59337
56008	1024238 15723 1805 15584 29.75 146 466 483.14999389648 733.21536254883 233976.67944336 118784359.80554
vector 56270  IntersectionExampleScenario.node[51].veinsmobility  acceleration  ETV
vector 56271  IntersectionExampleScenario.node[51].veinsmobility  co2emission  ETV
56075	1040130 9334 6543 15746 71.75 147.5 304 0.973 11.200708441096 666.36388904539 2801.3355834796
56074	1049464 9901 6543 15746 71.75 147.5 304 -4.5 2.5 37.635919570923 355.34092177044
56073	1059365 9637 6518 15746 71.5 147.5 305 0 15.224393844604 2185.5879935324 28203.894952086
56072	1069002 10439 6492 15746 71.25 147.5 306 184.17810058594 483.23913574219 130643.19833374 57860451.574411
56071	1079441 10461 6492 15746 71.25 147.5 306 486.85000610352 733.42677307129 157424.45994568 82143318.850192
56061	1089902 11217 4459 15908 53.25 149 384 0.973 11.648172402475 743.06337013158 2879.5765968616
56060	1101119 11389 4459 15908 53.25 149 384 -3.7288699150085 2.5 38.341367721558 312.07180630106
56059	1112508 11480 4428 15908 53 149 385 0 15.64999961853 2206.028934286 28887.846302929
56058	1123988 12997 4397 15908 52.75 149 386 483.14999389648 785.82187652588 206144.44289398 112277949.85272
56057	1136985 13114 4397 15908 52.75 149 386 483.14999389648 733.55297851562 194977.05110168 99709045.430836
vector 56274  IntersectionExampleScenario.node[52].veinsmobility  posx  ETV
vector 56275  IntersectionExampleScenario.node[52].veinsmobility  posy  ETV
56138	1150253 6470 9679 16016 99.5 150 203 0.973 11.54047740176 552.89096525922 2773.0631993837
56137	1156723 6723 9679 16016 99.5 150 203 -3.1894273757935 2.5000009536743 36.98334312439 332.03796069656
56136	1163446 6932 9650 16016 99.25 150 204 0.97691965103149 15.5 2215.41013062 28997.932473131
56135	1170378 7134 9621 16016 99 150 205 236.94482421875 785.82187652588 106988.17588043 60055648.69916
56134	1177512 7155 9621 16016 99 150 205 483.14999389648 483.14999389648 99045.748748779 47853952.903445
vector 56276  IntersectionExampleScenario.node[52].veinsmobility  speed  ETV
vector 56277  IntersectionExampleScenario.node[52].veinsmobility  acceleration  ETV
vector 56278  IntersectionExampleScenario.node[52].veinsmobility  co2emission  ETV
56117	1184914 8244 8104 16132 86.25 151 260 0.973 11.200708441096 620.4207920168 2705.0908790069
56116	1193158 8856 8104 16132 86.25 151 260 -4.5 2.5 36.98334312439 389.9244626359
56115	1202014 8891 8069 16132 86 151 261 0 15.026340484619 2180.6110071465 27798.924090036
56114	1210905 9010 8034 16132 85.75 151 262 184.17810058594 483.15737915039 109540.96127319 47766630.961551
56113	1219915 9031 8034 16132 85.75 151 262 486.85000610352 732.6104888916 135890.88711548 71577753.487556
56159	1228946 5880 10441 16190 106.75 151.5 180 0.973 11.648172402475 549.66226194672 3012.561025994
56158	1234826 5752 10441 16190 106.75 151.5 180 -4.349609375 2.5 38.171613693237 332.20437701266
56157	1240578 6048 10412 16190 106.5 151.5 181 4.6596732139587 15.64999961853 2207.0665168762 29255.623248407
56156	1246626 6337 10383 16190 106.25 151.5 182 184.17810058594 486.85000610352 73149.473358154 31205724.061381
56155	1252963 6369 10383 16190 106.25 151.5 182 237.58935546875 486.85000610352 80222.306152344 36366180.624581
vector 56281  IntersectionExampleScenario.node[53].veinsmobility  posx  ETV
vector 56282  IntersectionExampleScenario.node[53].veinsmobility  posy  ETV
56187	1259486 5182 11107 16219 112.5 151.75 158 0.973 11.990504229548 530.35015511613 3106.0061638316
56186	1264668 4914 11107 16219 112.5 151.75 158 -4.072338104248 2.5 42.754949569702 264.67394877217
56185	1269582 5308 11076 16219 112.25 151.75 159 5.6500000953674 16.361749649048 2218.5013933182 32208.275948699
56184	1274890 5562 11045 16219 112 151.75 160 184.17810058594 732.99589538574 71155.619033813 35610068.223731
56183	1280452 5600 11045 16219 112 151.75 160 486.85000610352 486.85000610352 77896.000976562 37923668.550879
vector 56283  IntersectionExampleScenario.node[53].veinsmobility  speed  ETV
56145	1286130 6154 10281 16249 105.25 152 188 0.973 11.200708441096 542.00628467088 2758.3390805498
56144	1292284 6260 10281 16249 105.25 152 188 -3.5506229400635 2.5000019073486 38.171613693237 310.35421541337
56143	1298544 6415 10256 16249 105 152 189 4.4592089653015 15.445775032043 2214.4386210442 29172.411078032
56142	1304959 6628 10230 16249 104.75 152 190 237.04809570312 785.82187652588 99743.269706726 56532620.749042
56141	1311587 6649 10230 16249 104.75 152 190 483.14999389648 483.14999389648 91798.498840332 44352444.154413
vector 56284  IntersectionExampleScenario.node[53].veinsmobility  acceleration  ETV
vector 56285  IntersectionExampleScenario.node[53].veinsmobility  co2emission  ETV
vector 56288  IntersectionExampleScenario.node[54].veinsmobility  posx  ETV
vector 56289  IntersectionExampleScenario.node[54].veinsmobility  posy  ETV
vector 56290  IntersectionExampleScenario.node[54].veinsmobility  speed  ETV
vector 56291  IntersectionExampleScenario.node[54].veinsmobility  acceleration  ETV
vector 56292  IntersectionExampleScenario.node[54].veinsmobility  co2emission  ETV
56152	1318806 6437 10412 16612 106.5 155 195 0.973 11.648172402475 573.57940978443 2999.5993079588
56151	1325243 6276 10412 16612 106.5 155 195 -4.5 2.5 38.511121749878 370.49948636495
56150	1331519 6536 10383 16612 106.25 155 196 4.5530958175659 15.64999961853 2276.1385011673 29773.173484305
56149	1338055 6882 10356 16612 106 155 197 486.85000610352 807.09531402588 113276.30311584 67259820.365311
56148	1344937 6885 10356 16612 106 155 197 235.44470214844 483.14999389648 86916.812957764 39360621.268737
vector 56295  IntersectionExampleScenario.node[55].veinsmobility  posx  ETV
vector 56296  IntersectionExampleScenario.node[55].veinsmobility  posy  ETV
vector 56297  IntersectionExampleScenario.node[55].veinsmobility  speed  ETV
vector 56298  IntersectionExampleScenario.node[55].veinsmobility  acceleration  ETV
vector 56299  IntersectionExampleScenario.node[55].veinsmobility  co2emission  ETV
56166	1352223 6199 10690 16761 109 156.25 190 0.97223939240464 11.648172402475 554.24254112276 2959.1925277919
56165	1358422 6156 10690 16761 109 156.25 190 -4.5 2.5 38.680875778198 302.71265839805
56164	1364578 6395 10662 16761 108.75 156.25 191 5.2095251083374 15.64999961853 2315.3863854408 30497.164760739
56163	1370973 6704 10633 16761 108.5 156.25 192 483.14999389648 812.05235290527 110975.99145508 66377124.39839
56162	1377677 6711 10633 16761 108.5 156.25 192 483.14999389648 733.5567779541 101159.01779175 54330331.073981
vector 56302  IntersectionExampleScenario.node[56].veinsmobility  posx  ETV
vector 56303  IntersectionExampleScenario.node[56].veinsmobility  posy  ETV
vector 56309  IntersectionExampleScenario.node[57].veinsmobility  posx  ETV
vector 56310  IntersectionExampleScenario.node[57].veinsmobility  posy  ETV
vector 56304  IntersectionExampleScenario.node[56].veinsmobility  speed  ETV
vector 56305  IntersectionExampleScenario.node[56].veinsmobility  acceleration  ETV
vector 56306  IntersectionExampleScenario.node[56].veinsmobility  co2emission  ETV
vector 56311  IntersectionExampleScenario.node[57].veinsmobility  speed  ETV
vector 56312  IntersectionExampleScenario.node[57].veinsmobility  acceleration  ETV
vector 56313  IntersectionExampleScenario.node[57].veinsmobility  co2emission  ETV
56194	1385190 5522 11483 17055 115.5 158.5 173 0.973 11.810082123732 517.03808492915 2997.9234413648
56193	1390712 5644 11483 17055 115.5 158.5 173 -3.0812091827393 2.5 38.850629806519 279.14906005928
56192	1396356 5752 11450 17055 115.25 158.5 174 5.6500000953674 15.875 2182.1365466118 28996.502097122
56191	1402108 6102 11417 17055 115 158.5 175 486.85000610352 785.82187652588 100054.41257477 58962875.997932
56190	1408210 6114 11417 17055 115 158.5 175 237.54968261719 483.14999389648 76473.823272705 34363434.701615
56201	1414324 5423 12015 17319 119.5 160.5 165 0.973 11.450879080643 486.09642136619 2624.2608980696
56200	1419747 5499 12015 17319 119.5 160.5 165 -3.4058799743652 2.5 37.492597579956 227.16298898409
56199	1425246 5522 11980 17319 119.25 160.5 166 5.6500000953674 15.375 2231.2575473785 30831.614910111
56198	1430768 5832 11945 17319 119 160.5 167 483.12042236328 792.02188110352 95864.004615784 56918472.388123
56197	1436600 5837 11945 17319 119 160.5 167 483.14999389648 732.86094665527 89183.152877808 48608631.299103
vector 56316  IntersectionExampleScenario.node[58].veinsmobility  posx  ETV
vector 56317  IntersectionExampleScenario.node[58].veinsmobility  posy  ETV
vector 56318  IntersectionExampleScenario.node[58].veinsmobility  speed  ETV
vector 56319  IntersectionExampleScenario.node[58].veinsmobility  acceleration  ETV
vector 56320  IntersectionExampleScenario.node[58].veinsmobility  co2emission  ETV
vector 56323  IntersectionExampleScenario.node[59].veinsmobility  posx  ETV
vector 56324  IntersectionExampleScenario.node[59].veinsmobility  posy  ETV
vector 56330  IntersectionExampleScenario.node[60].veinsmobility  posx  ETV
vector 56331  IntersectionExampleScenario.node[60].veinsmobility  posy  ETV
vector 56325  IntersectionExampleScenario.node[59].veinsmobility  speed  ETV
vector 56326  IntersectionExampleScenario.node[59].veinsmobility  acceleration  ETV
vector 56327  IntersectionExampleScenario.node[59].veinsmobility  co2emission  ETV
vector 56332  IntersectionExampleScenario.node[60].veinsmobility  speed  ETV
vector 56333  IntersectionExampleScenario.node[60].veinsmobility  acceleration  ETV
vector 56334  IntersectionExampleScenario.node[60].veinsmobility  co2emission  ETV
vector 56337  IntersectionExampleScenario.node[61].veinsmobility  posx  ETV
vector 56338  IntersectionExampleScenario.node[61].veinsmobility  posy  ETV
vector 56339  IntersectionExampleScenario.node[61].veinsmobility  speed  ETV
vector 56340  IntersectionExampleScenario.node[61].veinsmobility  acceleration  ETV
vector 56341  IntersectionExampleScenario.node[61].veinsmobility  co2emission  ETV
56236	1444041 5426 13408 18419 128.75 168.25 159 0.973 11.450879080643 484.85277543601 2508.3976827919
56235	1449467 4771 13408 18419 128.75 168.25 159 -3.1659851074219 2.5 37.492597579956 221.06147917436
56234	1454238 5315 13365 18419 128.5 168.25 160 5.6500000953674 15.375 2208.8621444702 31360.982179384
56233	1459553 5629 13322 18419 128.25 168.25 161 483.14999389648 785.82187652588 92056.787269592 54427339.067731
56232	1465182 5625 13322 18419 128.25 168.25 161 483.14999389648 733.46098327637 86326.65246582 47259216.116872
56243	1470807 5329 13918 18837 132 171 157 0.973 11.648172402475 514.7459125217 2796.3661881516
56242	1476136 4836 13918 18837 132 171 157 -3.5689353942871 2.5 39.869146347046 283.62641934498
56241	1480972 5227 13879 18837 131.75 171 158 5.6500000953674 15.672842979431 2187.2497205734 31734.092318053
56240	1486199 5538 13840 18837 131.5 171 159 184.17810058594 483.14999389648 63188.511291504 26837465.892593
56239	1491737 5558 13840 18837 131.5 171 159 486.85000610352 733.86796569824 85455.536239624 46841155.214015
vector 56344  IntersectionExampleScenario.node[62].veinsmobility  posx  ETV
vector 56345  IntersectionExampleScenario.node[62].veinsmobility  posy  ETV
vector 56346  IntersectionExampleScenario.node[62].veinsmobility  speed  ETV
vector 56347  IntersectionExampleScenario.node[62].veinsmobility  acceleration  ETV
vector 56348  IntersectionExampleScenario.node[62].veinsmobility  co2emission  ETV
56250	1497696 5508 14322 19434 134.75 175 162 0.973 11.36141391502 496.04206152594 2597.598836304
56249	1503204 5062 14322 19434 134.75 175 162 -4.1617736816406 2.5 36.813589096069 274.26820585496
56248	1508266 5389 14287 19434 134.5 175 163 5.6500000953674 15.25 2179.8585138321 30364.484331194
56247	1513655 5733 14252 19434 134.25 175 164 486.8410949707 785.82187652588 93895.501167297 55521497.812676
56246	1519388 5715 14252 19434 134.25 175 164 237.57775878906 483.14999389648 70903.089050293 31591607.686639
vector 56351  IntersectionExampleScenario.node[63].veinsmobility  posx  ETV
vector 56352  IntersectionExampleScenario.node[63].veinsmobility  posy  ETV
vector 56353  IntersectionExampleScenario.node[63].veinsmobility  speed  ETV
vector 56354  IntersectionExampleScenario.node[63].veinsmobility  acceleration  ETV
vector 56355  IntersectionExampleScenario.node[63].veinsmobility  co2emission  ETV
56257	1525504 5334 14678 19622 137.5 176.25 156 0.973 11.635738450091 508.2350371934 2760.9117469181
56256	1530838 4843 14678 19622 137.5 176.25 156 -4.3950996398926 2.5 39.359884262085 237.1103992828
56255	1535681 5265 14647 19622 137.25 176.25 157 5.6500000953674 15.632695198059 2268.5464553833 33459.561069016
56254	1540946 5509 14616 19622 137 176.25 158 238.35540771484 800.04531860352 83702.390289307 48720587.282382
56253	1546455 5529 14616 19622 137 176.25 158 483.14999389648 483.14999389648 76337.699035645 36882558.823143
vector 56358  IntersectionExampleScenario.node[64].veinsmobility  posx  ETV
vector 56359  IntersectionExampleScenario.node[64].veinsmobility  posy  ETV
vector 56365  IntersectionExampleScenario.node[65].veinsmobility  posx  ETV
vector 56366  IntersectionExampleScenario.node[65].veinsmobility  posy  ETV
vector 56360  IntersectionExampleScenario.node[64].veinsmobility  speed  ETV
vector 56367  IntersectionExampleScenario.node[65].veinsmobility  speed  ETV
vector 56361  IntersectionExampleScenario.node[64].veinsmobility  acceleration  ETV
vector 56362  IntersectionExampleScenario.node[64].veinsmobility  co2emission  ETV
vector 56368  IntersectionExampleScenario.node[65].veinsmobility  acceleration  ETV
vector 56369  IntersectionExampleScenario.node[65].veinsmobility  co2emission  ETV
vector 56372  IntersectionExampleScenario.node[66].veinsmobility  posx  ETV
vector 56373  IntersectionExampleScenario.node[66].veinsmobility  posy  ETV
vector 56374  IntersectionExampleScenario.node[66].veinsmobility  speed  ETV
vector 56375  IntersectionExampleScenario.node[66].veinsmobility  acceleration  ETV
vector 56376  IntersectionExampleScenario.node[66].veinsmobility  co2emission  ETV
vector 56379  IntersectionExampleScenario.node[67].veinsmobility  posx  ETV
vector 56380  IntersectionExampleScenario.node[67].veinsmobility  posy  ETV
vector 56381  IntersectionExampleScenario.node[67].veinsmobility  speed  ETV
vector 56382  IntersectionExampleScenario.node[67].veinsmobility  acceleration  ETV
vector 56383  IntersectionExampleScenario.node[67].veinsmobility  co2emission  ETV
56271	1553588 5538 15611 21176 146.25 186.5 162 0.973 11.200708441096 476.08751514023 2369.9055514619
56270	1559126 4998 15611 21176 146.25 186.5 162 -3.5860557556152 2.5 35.795072555542 221.1589862443
56269	1564124 5429 15584 21176 146 186.5 163 5.6500000953674 15.02499961853 2208.9732542038 30681.656625061
56268	1569553 5721 15557 21176 145.75 186.5 164 184.17810058594 487.07064819336 65340.204406738 27846274.673014
56267	1575274 5733 15557 21176 145.75 186.5 164 236.2294921875 486.85000610352 71047.395355225 31777439.103052
vector 56386  IntersectionExampleScenario.node[68].veinsmobility  posx  ETV
vector 56387  IntersectionExampleScenario.node[68].veinsmobility  posy  ETV
vector 56388  IntersectionExampleScenario.node[68].veinsmobility  speed  ETV
vector 56389  IntersectionExampleScenario.node[68].veinsmobility  acceleration  ETV
vector 56390  IntersectionExampleScenario.node[68].veinsmobility  co2emission  ETV
56278	1581408 5230 16074 21537 150.5 189 155 0.973 12.099024792222 532.27520374411 2916.4239626579
56277	1586638 4958 16074 21537 150.5 189 155 -3.4184970855713 2.5 42.245687484741 288.25538390055
56276	1591596 5148 16045 21537 150.25 189 156 5.6500000953674 16.27499961853 2191.7778611183 32469.752941205
56275	1596744 5490 16016 21537 150 189 157 486.70318603516 785.82187652588 89773.218818665 53041923.928861
56274	1602234 5486 16016 21537 150 189 157 235.35186767578 483.14999389648 67946.299346924 30299048.546706
vector 56393  IntersectionExampleScenario.node[69].veinsmobility  posx  ETV
vector 56394  IntersectionExampleScenario.node[69].veinsmobility  posy  ETV
vector 56395  IntersectionExampleScenario.node[69].veinsmobility  speed  ETV
vector 56396  IntersectionExampleScenario.node[69].veinsmobility  acceleration  ETV
vector 56397  IntersectionExampleScenario.node[69].veinsmobility  co2emission  ETV
56124	1608121 11448 8685 21982 90.75 192 406 0.97223939240464 11.648172402475 778.05256047863 3312.9507719305
56123	1619569 10300 8685 21982 90.75 192 406 -7.779335975647 4 38.680875778198 492.5510524664
56122	1629869 10504 8653 21982 90.5 192 407 0 15.64999961853 2189.0773777962 30986.161320188
56121	1640373 14181 8620 21982 90.25 192 408 483.14999389648 734.76512145996 205590.38926697 104840753.80003
56120	1654554 14165 8620 21982 90.25 192 408 184.17810058594 486.85000610352 180679.79574585 82304132.102936
56180	1668719 10338 10781 22241 109.75 193.75 337 0.973 11.648172402475 695.46102047836 3009.2912589104
56179	1679057 10365 10781 22241 109.75 193.75 337 -3.7288761138916 2.5 38.341367721558 340.25461072241
56178	1689422 10411 10750 22241 109.5 193.75 338 0 15.64999961853 2184.4279717719 28751.388947357
56177	1699833 11854 10719 22241 109.25 193.75 339 236.9482421875 483.14999389648 155607.88195801 72568259.63619
56176	1711687 11756 10719 22241 109.25 193.75 339 184.17810058594 483.14999389648 146087.63592529 65061612.900369
vector 56400  IntersectionExampleScenario.node[70].veinsmobility  posx  ETV
vector 56401  IntersectionExampleScenario.node[70].veinsmobility  posy  ETV
vector 56407  IntersectionExampleScenario.node[71].veinsmobility  posx  ETV
vector 56408  IntersectionExampleScenario.node[71].veinsmobility  posy  ETV
vector 56402  IntersectionExampleScenario.node[70].veinsmobility  speed  ETV
56215	1723829 9380 12505 22613 123 196.25 294 0.973 11.450879080643 646.2244199922 2851.864236595
56214	1733209 9820 12505 22613 123 196.25 294 -3.9699237346649 2.5 37.15309715271 327.42066657855
56213	1743029 9806 12468 22613 122.75 196.25 295 0 15.375 2208.3102354268 28561.971353854
56212	1752835 10356 12431 22613 122.5 196.25 296 483.14999389648 732.96206665039 151564.76925659 78784604.386918
56211	1763191 10272 12431 22613 122.5 196.25 296 184.17810058594 486.85000610352 125319.728302 55098397.653537
vector 56403  IntersectionExampleScenario.node[70].veinsmobility  acceleration  ETV
vector 56404  IntersectionExampleScenario.node[70].veinsmobility  co2emission  ETV
vector 56409  IntersectionExampleScenario.node[71].veinsmobility  speed  ETV
vector 56410  IntersectionExampleScenario.node[71].veinsmobility  acceleration  ETV
vector 56411  IntersectionExampleScenario.node[71].veinsmobility  co2emission  ETV
56229	1773879 9534 13076 23064 126.75 199 290 0.973 11.36141391502 673.36153392761 3014.7081941546
56228	1783413 9477 13076 23064 126.75 199 290 -4.5 2.5 38.171613693237 509.5512794274
56227	1792890 9801 13035 23064 126.5 199 291 0 15.25 2132.108763 27534.836927631
56226	1802691 10211 12994 23064 126.25 199 292 236.89575195312 483.14999389648 132870.1678772 61572749.022751
56225	1812902 10176 12994 23064 126.25 199 292 196.93048095703 483.14999389648 123423.83822632 53892335.025158
56222	1823078 9977 12916 23350 125.75 200.75 301 0.973 11.450879080643 696.75457323094 3092.923615296
56221	1833055 9968 12916 23350 125.75 200.75 301 -4.5 2.5000019073486 38.511121749878 486.17107336336
56220	1843023 10282 12877 23350 125.5 200.75 302 0 15.540353775024 2265.0201142095 29166.244944024
56219	1853305 10599 12838 23350 125.25 200.75 303 483.14999389648 732.62210083008 154746.88088989 80189271.584095
56218	1863904 10577 12838 23350 125.25 200.75 303 169.95465087891 486.85000610352 124379.96777344 53471610.214918
vector 56414  IntersectionExampleScenario.node[72].veinsmobility  posx  ETV
vector 56415  IntersectionExampleScenario.node[72].veinsmobility  posy  ETV
vector 56416  IntersectionExampleScenario.node[72].veinsmobility  speed  ETV
vector 56417  IntersectionExampleScenario.node[72].veinsmobility  acceleration  ETV
vector 56418  IntersectionExampleScenario.node[72].veinsmobility  co2emission  ETV
vector 56421  IntersectionExampleScenario.node[73].veinsmobility  posx  ETV
vector 56422  IntersectionExampleScenario.node[73].veinsmobility  posy  ETV
vector 56423  IntersectionExampleScenario.node[73].veinsmobility  speed  ETV
56299	1875114 6170 16761 23793 156.25 203.5 190 0.973 11.093806525473 530.7919616262 2625.2762386672
56298	1881284 6231 16761 23793 156.25 203.5 190 -2.683443069458 2.5000019073486 34.437047958374 290.72065028209
56297	1887515 6452 16730 23793 156 203.5 191 3.9522693157196 14.875 2220.0702822208 28096.787697515
56296	1893967 6720 16699 23793 155.75 203.5 192 483.14999389648 483.14999389648 92764.798828125 44819311.987617
56295	1900687 6681 16699 23793 155.75 203.5 192 184.17810058594 734.38540649414 85693.125 42649210.28912
vector 56424  IntersectionExampleScenario.node[73].veinsmobility  acceleration  ETV
vector 56425  IntersectionExampleScenario.node[73].veinsmobility  co2emission  ETV
vector 56428  IntersectionExampleScenario.node[74].veinsmobility  posx  ETV
vector 56429  IntersectionExampleScenario.node[74].veinsmobility  posy  ETV
56327	1907691 5270 17883 24134 164.75 205.5 164 0.973 12.099024792222 551.18942157236 3443.8393085759
56326	1912961 5239 17883 24134 164.75 205.5 164 -3.7493934631348 2.5 40.717908859253 340.03949342846
56325	1918200 5469 17846 24134 164.5 205.5 165 5.6500000953674 16.27499961853 2180.2744245529 30340.128712505
56324	1923669 5804 17811 24134 164.25 205.5 166 237.82373046875 483.14999389648 72357.673187256 32445874.321364
56323	1929473 5790 17811 24134 164.25 205.5 166 184.17810058594 483.14999389648 66005.321502686 27966984.069105
vector 56430  IntersectionExampleScenario.node[74].veinsmobility  speed  ETV
vector 56431  IntersectionExampleScenario.node[74].veinsmobility  acceleration  ETV
vector 56432  IntersectionExampleScenario.node[74].veinsmobility  co2emission  ETV
vector 56435  IntersectionExampleScenario.node[75].veinsmobility  posx  ETV
vector 56436  IntersectionExampleScenario.node[75].veinsmobility  posy  ETV
vector 56442  IntersectionExampleScenario.node[76].veinsmobility  posx  ETV
vector 56443  IntersectionExampleScenario.node[76].veinsmobility  posy  ETV
vector 56437  IntersectionExampleScenario.node[75].veinsmobility  speed  ETV
vector 56444  IntersectionExampleScenario.node[76].veinsmobility  speed  ETV
vector 56438  IntersectionExampleScenario.node[75].veinsmobility  acceleration  ETV
vector 56439  IntersectionExampleScenario.node[75].veinsmobility  co2emission  ETV
vector 56445  IntersectionExampleScenario.node[76].veinsmobility  acceleration  ETV
vector 56446  IntersectionExampleScenario.node[76].veinsmobility  co2emission  ETV
vector 56449  IntersectionExampleScenario.node[77].veinsmobility  posx  ETV
vector 56450  IntersectionExampleScenario.node[77].veinsmobility  posy  ETV
vector 56451  IntersectionExampleScenario.node[77].veinsmobility  speed  ETV
vector 56452  IntersectionExampleScenario.node[77].veinsmobility  acceleration  ETV
vector 56453  IntersectionExampleScenario.node[77].veinsmobility  co2emission  ETV
vector 56456  IntersectionExampleScenario.node[78].veinsmobility  posx  ETV
vector 56457  IntersectionExampleScenario.node[78].veinsmobility  posy  ETV
vector 56463  IntersectionExampleScenario.node[79].veinsmobility  posx  ETV
vector 56464  IntersectionExampleScenario.node[79].veinsmobility  posy  ETV
vector 56458  IntersectionExampleScenario.node[78].veinsmobility  speed  ETV
vector 56465  IntersectionExampleScenario.node[79].veinsmobility  speed  ETV
vector 56459  IntersectionExampleScenario.node[78].veinsmobility  acceleration  ETV
vector 56460  IntersectionExampleScenario.node[78].veinsmobility  co2emission  ETV
vector 56466  IntersectionExampleScenario.node[79].veinsmobility  acceleration  ETV
vector 56467  IntersectionExampleScenario.node[79].veinsmobility  co2emission  ETV
56369	1937515 5191 19952 26130 178.5 216.25 152 0.973 11.990504229548 480.56587504167 2612.2460010431
56368	1942706 4754 19952 26130 178.5 216.25 152 -3.098316192627 2.5 39.699392318726 198.7413223314
56367	1947460 5105 19913 26130 178.25 216.25 153 5.6500000953674 16.125 2223.7700414658 33036.010603426
56366	1952565 5389 19874 26130 178 216.25 154 483.14999389648 483.14999389648 74405.099060059 35948823.156735
56365	1957954 5355 19874 26130 178 216.25 154 184.17810058594 734.81692504883 69104.701156616 35120463.854685
56376	1963309 5445 20449 27038 181.75 221.25 159 0.973 11.54047740176 471.06205316598 2350.1890539425
56375	1968754 4837 20449 27038 181.75 221.25 159 -2.9039649963379 2.5 37.32285118103 179.22749571869
56374	1973591 5364 20410 27038 181.5 221.25 160 5.6500000953674 15.5 2261.5393009186 32549.430045268
56373	1978955 5636 20371 27038 181.25 221.25 161 483.14999389648 483.14999389648 77787.149017334 37582860.57295
56372	1984591 5604 20371 27038 181.25 221.25 161 172.9296875 733.21788024902 71366.237075806 36080491.35898
56173	1990195 13351 10750 28149 109.5 228.25 476 0.973 11.648172402475 840.08195261113 3198.3385052502
56172	2003546 11756 10750 28149 109.5 228.25 476 -7.7750473022461 4 38.511121749878 476.5267975717
56171	2015302 12080 10719 28149 109.25 228.25 477 0 15.64999961853 2201.8212580681 31157.430440079
56170	2027382 16724 10690 28149 109 228.25 478 236.75640869141 486.85000610352 224325.34768677 106526424.04893
56169	2044106 16717 10690 28149 109 228.25 478 483.14999389648 785.82187652588 249960.70536041 133056255.36127
56208	2060823 12529 12361 28223 122 228.75 428 0.973 12.099024792222 809.38815812134 3445.332510701
56207	2073352 12334 12361 28223 122 228.75 428 -3.8496663570404 2.5 41.057416915894 365.30583727022
56206	2085686 12293 12326 28223 121.75 228.75 429 0 16.27499961853 2218.437994658 30607.093970126
56205	2097979 15051 12291 28223 121.5 228.75 430 486.85000610352 486.85000610352 209345.50262451 101919859.23049
56204	2113030 15025 12291 28223 121.5 228.75 430 236.23937988281 785.82187652588 220417.46346283 117056427.70454
vector 56470  IntersectionExampleScenario.node[80].veinsmobility  posx  ETV
vector 56471  IntersectionExampleScenario.node[80].veinsmobility  posy  ETV
vector 56477  IntersectionExampleScenario.node[81].veinsmobility  posx  ETV
vector 56478  IntersectionExampleScenario.node[81].veinsmobility  posy  ETV
vector 56472  IntersectionExampleScenario.node[80].veinsmobility  speed  ETV
vector 56473  IntersectionExampleScenario.node[80].veinsmobility  acceleration  ETV
vector 56474  IntersectionExampleScenario.node[80].veinsmobility  co2emission  ETV
vector 56479  IntersectionExampleScenario.node[81].veinsmobility  speed  ETV
vector 56480  IntersectionExampleScenario.node[81].veinsmobility  acceleration  ETV
vector 56481  IntersectionExampleScenario.node[81].veinsmobility  co2emission  ETV
56264	2128857 10468 15584 28604 146 231.25 342 0.973 12.099024792222 732.6214039077 3289.0688862657
56263	2139325 10588 15584 28604 146 231.25 342 -3.9866733551025 2.5 42.245687484741 358.65857654402
56262	2149913 10625 15557 28604 145.75 231.25 343 0 16.27499961853 2204.9217829537 30244.362007698
56261	2160538 12034 15532 28604 145.5 231.25 344 238.08245849609 486.85000610352 159599.30789185 75166633.007687
56260	2172572 12017 15532 28604 145.5 231.25 344 483.14999389648 785.82187652588 185948.56668854 102544021.93726
vector 56484  IntersectionExampleScenario.node[82].veinsmobility  posx  ETV
vector 56485  IntersectionExampleScenario.node[82].veinsmobility  posy  ETV
vector 56486  IntersectionExampleScenario.node[82].veinsmobility  speed  ETV
vector 56487  IntersectionExampleScenario.node[82].veinsmobility  acceleration  ETV
vector 56488  IntersectionExampleScenario.node[82].veinsmobility  co2emission  ETV
56285	2184990 10347 16278 29099 152.25 234.5 330 0.973 11.200708441096 668.33187975539 2763.9994037823
56284	2195337 10702 16278 29099 152.25 234.5 330 -3.8042924404144 2.5000019073486 35.795072555542 318.38785818666
56283	2206039 10815 16249 29099 152 234.5 331 0 15.02499961853 2215.5785889877 27836.211641864
56282	2216854 11620 16219 29099 151.75 234.5 332 486.85000610352 486.85000610352 161634.20202637 78691612.243074
56281	2228474 11588 16219 29099 151.75 234.5 332 236.75787353516 785.82187652588 173264.47814178 94731179.246657
56292	2240062 11048 16398 29528 153.25 237.5 338 0.973 11.36141391502 715.2285554904 3022.68301002
56291	2251110 11615 16398 29528 153.25 237.5 338 -4.5 2.5 35.964826583862 473.81863157282
56290	2262725 11441 16367 29528 153 237.5 339 0 15.25 2272.8468644647 28195.983087493
56289	2274166 11877 16336 29528 152.75 237.5 340 486.85000610352 733.00218200684 174006.89257812 90232373.798265
56288	2286043 11861 16336 29528 152.75 237.5 340 486.85000610352 807.99687957764 189174.25631714 107632728.54473
56334	2297904 9346 17920 29562 165 237.75 292 0.973 11.648172402475 661.98159803862 3038.0610761521
56333	2307250 9952 17920 29562 165 237.75 292 -3.9909300804138 2.5 39.020376205444 333.38766379007
56332	2317202 10033 17883 29562 164.75 237.75 293 0 15.64999961853 2215.2698612157 28547.930423011
56331	2327235 10291 17846 29562 164.5 237.75 294 486.85000610352 486.85000610352 143133.90179443 69684740.96224
56330	2337526 10260 17846 29562 164.5 237.75 294 237.53228759766 785.82187652588 155716.30672455 86634070.693683
56348	2347786 8398 19100 29793 172.75 239.5 268 0.973 11.648172402475 628.56580660136 2949.8570160517
56347	2356184 8632 19100 29793 172.75 239.5 268 -3.7804114818573 2.5 39.869146347046 385.8597603666
56346	2364816 8637 19061 29793 172.5 239.5 269 0 15.64999961853 2213.1405413449 29524.375344124
56345	2373453 9451 19022 29793 172.25 239.5 270 486.85000610352 486.85000610352 131449.50164795 63996190.679608
56344	2382904 9431 19022 29793 172.25 239.5 270 238.3134765625 785.82187652588 143429.76934052 80281656.470319
vector 56491  IntersectionExampleScenario.node[83].veinsmobility  posx  ETV
vector 56492  IntersectionExampleScenario.node[83].veinsmobility  posy  ETV
vector 56493  IntersectionExampleScenario.node[83].veinsmobility  speed  ETV
vector 56494  IntersectionExampleScenario.node[83].veinsmobility  acceleration  ETV
vector 56495  IntersectionExampleScenario.node[83].veinsmobility  co2emission  ETV
vector 56498  IntersectionExampleScenario.node[84].veinsmobility  posx  ETV
vector 56499  IntersectionExampleScenario.node[84].veinsmobility  posy  ETV
vector 56500  IntersectionExampleScenario.node[84].veinsmobility  speed  ETV
vector 56501  IntersectionExampleScenario.node[84].veinsmobility  acceleration  ETV
vector 56502  IntersectionExampleScenario.node[84].veinsmobility  co2emission  ETV
56383	2393137 7877 20606 30516 182.75 244.5 248 0.973 10.916047529558 617.60196762296 2919.1805908179
56382	2401014 7676 20606 30516 182.75 244.5 248 -3.5230102539062 2.5 34.267293930054 407.84763839532
56381	2408690 7996 20567 30516 182.5 244.5 249 0 14.625 2186.9077542722 26561.473158593
56380	2416686 8740 20527 30516 182.25 244.5 250 486.85000610352 734.62846374512 130554.4513092 69323854.60857
56379	2425426 8731 20527 30516 182.25 244.5 250 486.78240966797 785.82187652588 141230.1784668 81635396.354373
56404	2434157 6401 22654 30775 196.5 246.25 200 0.973 11.200708441096 563.67967870263 2818.9494903809
56403	2440558 6561 22654 30775 196.5 246.25 200 -3.3810768127441 2.5 36.98334312439 336.49125216344
56402	2447119 6727 22613 30775 196.25 246.25 201 3.8282163143158 15.02499961853 2180.910784483 27031.176713029
56401	2453846 7063 22574 30775 196 246.25 202 486.85000610352 732.71412658691 106682.47819519 57360694.759539
56400	2460909 7045 22574 30775 196 246.25 202 486.85000610352 785.82187652588 115271.05991364 67568078.733618
vector 56505  IntersectionExampleScenario.node[85].veinsmobility  posx  ETV
vector 56506  IntersectionExampleScenario.node[85].veinsmobility  posy  ETV
vector 56507  IntersectionExampleScenario.node[85].veinsmobility  speed  ETV
vector 56508  IntersectionExampleScenario.node[85].veinsmobility  acceleration  ETV
vector 56509  IntersectionExampleScenario.node[85].veinsmobility  co2emission  ETV
56418	2468355 5958 23627 31114 202.5 248.5 185 0.973 11.200708441096 529.17553226505 2710.1905427647
56417	2474313 6076 23627 31114 202.5 248.5 185 -4.276912689209 2.5 36.813589096069 300.41159168862
56416	2480389 6228 23586 31114 202.25 248.5 186 4.2527341842651 15.02499961853 2178.0169882774 27659.788243975
56415	2486617 6540 23545 31114 202 248.5 187 486.85000610352 732.29895019531 99371.136474609 53793748.647931
56414	2493157 6531 23545 31114 202 248.5 187 486.85000610352 785.82187652588 106770.0528183 62747505.90491
56432	2499688 5683 24220 31153 206 248.75 172 0.973 11.990504229548 545.19332323515 2952.0991493802
56431	2505371 5588 24220 31153 206 248.75 172 -4.6059379577637 2.5 39.699392318726 280.69021444743
56430	2510959 5810 24177 31153 205.75 248.75 173 5.6500000953674 16.125 2256.6902503967 30952.385799392
56429	2516769 6091 24134 31153 205.5 248.75 174 486.85000610352 486.85000610352 84711.901062012 41241989.549081
56428	2522860 6062 24134 31153 205.5 248.75 174 236.271484375 795.46562957764 92271.607849121 53301158.977825
56439	2528922 5897 24701 31738 208.75 252.5 176 0.973 10.756497587458 468.54319861567 2070.1479473588
56438	2534819 5678 24701 31738 208.75 252.5 176 -3.8010368347168 2.5 34.267293930054 154.33868365732
56437	2540497 5975 24654 31738 208.5 252.5 177 5.6500000953674 14.39999961853 2296.8804988861 30352.338723894
56436	2546472 6231 24607 31738 208.25 252.5 178 486.85000610352 486.85000610352 86659.301086426 42190081.262853
56435	2552703 6222 24607 31738 208.25 252.5 178 235.44396972656 804.86719512939 94326.144538879 54842597.127779
vector 56512  IntersectionExampleScenario.node[86].veinsmobility  posx  ETV
vector 56513  IntersectionExampleScenario.node[86].veinsmobility  posy  ETV
vector 56514  IntersectionExampleScenario.node[86].veinsmobility  speed  ETV
vector 56519  IntersectionExampleScenario.node[87].veinsmobility  posx  ETV
vector 56520  IntersectionExampleScenario.node[87].veinsmobility  posy  ETV
vector 56515  IntersectionExampleScenario.node[86].veinsmobility  acceleration  ETV
vector 56516  IntersectionExampleScenario.node[86].veinsmobility  co2emission  ETV
vector 56521  IntersectionExampleScenario.node[87].veinsmobility  speed  ETV
56460	2559558 5391 25692 31941 214 253.75 160 0.973 11.607186841181 473.64964075412 2297.14574283
56459	2564949 5522 25692 31941 214 253.75 160 -3.6550331115723 2.5 39.414178848267 169.00942661691
56458	2570471 5446 25643 31941 213.75 253.75 161 5.6500000953674 15.592946052551 2241.2388315201 31759.033737161
56457	2575917 5671 25594 31941 213.5 253.75 162 486.85000610352 486.85000610352 78869.70098877 38397714.407765
56456	2581588 5644 25594 31941 213.5 253.75 162 237.40716552734 792.59790802002 84934.413696289 48902162.305471
vector 56522  IntersectionExampleScenario.node[87].veinsmobility  acceleration  ETV
vector 56523  IntersectionExampleScenario.node[87].veinsmobility  co2emission  ETV
vector 56526  IntersectionExampleScenario.node[88].veinsmobility  posx  ETV
vector 56527  IntersectionExampleScenario.node[88].veinsmobility  posy  ETV
vector 56528  IntersectionExampleScenario.node[88].veinsmobility  speed  ETV
vector 56529  IntersectionExampleScenario.node[88].veinsmobility  acceleration  ETV
vector 56530  IntersectionExampleScenario.node[88].veinsmobility  co2emission  ETV
vector 56533  IntersectionExampleScenario.node[89].veinsmobility  posx  ETV
vector 56534  IntersectionExampleScenario.node[89].veinsmobility  posy  ETV
vector 56535  IntersectionExampleScenario.node[89].veinsmobility  speed  ETV
vector 56536  IntersectionExampleScenario.node[89].veinsmobility  acceleration  ETV
vector 56537  IntersectionExampleScenario.node[89].veinsmobility  co2emission  ETV
vector 56540  IntersectionExampleScenario.node[90].veinsmobility  posx  ETV
vector 56541  IntersectionExampleScenario.node[90].veinsmobility  posy  ETV
vector 56542  IntersectionExampleScenario.node[90].veinsmobility  speed  ETV
vector 56543  IntersectionExampleScenario.node[90].veinsmobility  acceleration  ETV
vector 56544  IntersectionExampleScenario.node[90].veinsmobility  co2emission  ETV
vector 56547  IntersectionExampleScenario.node[91].veinsmobility  posx  ETV
vector 56548  IntersectionExampleScenario.node[91].veinsmobility  posy  ETV
vector 56549  IntersectionExampleScenario.node[91].veinsmobility  speed  ETV
vector 56550  IntersectionExampleScenario.node[91].veinsmobility  acceleration  ETV
vector 56551  IntersectionExampleScenario.node[91].veinsmobility  co2emission  ETV
vector 56554  IntersectionExampleScenario.node[92].veinsmobility  posx  ETV
vector 56555  IntersectionExampleScenario.node[92].veinsmobility  posy  ETV
vector 56556  IntersectionExampleScenario.node[92].veinsmobility  speed  ETV
56306	2589237 12612 16953 34210 157.75 269.75 449 0.973 12.099024792222 834.97206198485 3474.3827241796
56305	2601849 11338 16953 34210 157.75 269.75 449 -7.0590534210205 4 41.057416915894 490.28178478276
56304	2613187 11447 16918 34210 157.5 269.75 450 0 16.27499961853 2205.6435928345 32289.593197343
56303	2624634 15774 16885 34210 157.25 269.75 451 483.14999389648 785.82187652588 236223.84105682 126018413.04298
56302	2640408 15782 16885 34210 157.25 269.75 451 483.14999389648 733.81205749512 226008.95431519 114466367.56574
vector 56561  IntersectionExampleScenario.node[93].veinsmobility  posx  ETV
vector 56562  IntersectionExampleScenario.node[93].veinsmobility  posy  ETV
vector 56557  IntersectionExampleScenario.node[92].veinsmobility  acceleration  ETV
vector 56558  IntersectionExampleScenario.node[92].veinsmobility  co2emission  ETV
vector 56563  IntersectionExampleScenario.node[93].veinsmobility  speed  ETV
vector 56564  IntersectionExampleScenario.node[93].veinsmobility  acceleration  ETV
vector 56565  IntersectionExampleScenario.node[93].veinsmobility  co2emission  ETV
56313	2656760 13318 16988 34434 158 271.5 455 0.973 11.54047740176 820.88666161762 3033.0843744089
56312	2670078 12356 16988 34434 158 271.5 455 -4.5 2.5 37.15309715271 427.66264442459
56311	2682434 12528 16953 34434 157.75 271.5 456 0 15.5 2309.1735787708 31731.79222126
56310	2694962 15960 16918 34434 157.5 271.5 457 237.63812255859 810.23281097412 235887.84772491 126685486.3738
56309	2710922 15995 16918 34434 157.5 271.5 457 483.14999389648 483.14999389648 220799.54721069 106679299.88719
vector 56568  IntersectionExampleScenario.node[94].veinsmobility  posx  ETV
vector 56569  IntersectionExampleScenario.node[94].veinsmobility  posy  ETV
vector 56570  IntersectionExampleScenario.node[94].veinsmobility  speed  ETV
vector 56571  IntersectionExampleScenario.node[94].veinsmobility  acceleration  ETV
vector 56572  IntersectionExampleScenario.node[94].veinsmobility  co2emission  ETV
56355	2727318 11047 19585 34562 176 272.5 387 0.973 12.26218747632 776.40527289642 3507.9397322883
56354	2738365 10030 19585 34562 176 272.5 387 -6.9979004859924 4 41.227170944214 513.14802531363
56353	2748395 10114 19547 34562 175.75 272.5 388 0 16.5 2183.6382759809 31895.757490912
56352	2758509 13587 19508 34562 175.5 272.5 389 184.17810058594 483.24322509766 171776.4616394 78074555.3724
56351	2772096 13606 19508 34562 175.5 272.5 389 486.85000610352 733.75382995605 197251.1802063 101151445.13754
56320	2785702 13391 17448 34751 161.5 274 451 0.973 11.810082123732 827.54406316367 3221.2115283407
56319	2799093 13089 17448 34751 161.5 274 451 -3.741730928421 2.5000009536743 38.680875778198 383.93108302565
56318	2812182 12956 17415 34751 161.25 274 452 0 15.875 2271.224256156 30410.409503885
56317	2825138 15832 17382 34751 161 274 453 486.83743286133 808.75684356689 243796.97235107 133818164.94531
56316	2840970 15838 17382 34751 161 274 453 237.95520019531 483.14999389648 210795.57089233 99260910.60953
56453	2856808 8134 25454 34968 212.75 275.75 253 0.973 11.810082123732 615.34540700155 3025.5843159784
56452	2864942 8686 25454 34968 212.75 275.75 253 -3.9498527050018 2.5000009536743 38.511121749878 335.97298568923
56451	2873628 8591 25407 34968 212.5 275.75 254 0 15.875 2192.8419354614 28937.310620225
56450	2882219 8889 25359 34968 212.25 275.75 255 184.17810058594 483.14999389648 107041.25375366 46908843.941669
56449	2891108 8912 25359 34968 212.25 275.75 255 486.85000610352 735.28800964355 132448.7568512 69895223.782311
vector 56575  IntersectionExampleScenario.node[95].veinsmobility  posx  ETV
vector 56576  IntersectionExampleScenario.node[95].veinsmobility  posy  ETV
vector 56577  IntersectionExampleScenario.node[95].veinsmobility  speed  ETV
vector 56578  IntersectionExampleScenario.node[95].veinsmobility  acceleration  ETV
vector 56579  IntersectionExampleScenario.node[95].veinsmobility  co2emission  ETV
56467	2900421 8231 25692 35182 214 277.5 255 0.973 11.54047740176 618.69171285056 2859.925583033
56466	2908652 8577 25692 35182 214 277.5 255 -4.5 2.5 37.32285118103 396.21075689698
56465	2917229 8757 25643 35182 213.75 277.5 256 0 15.5 2304.2553305738 29907.612378997
56464	2925986 8951 25594 35182 213.5 277.5 257 162.90466308594 734.19493103027 113445.60400391 54813387.63955
56463	2934937 8995 25594 35182 213.5 277.5 257 486.85000610352 486.85003662109 125120.45159912 60914892.639564
56362	2943932 12026 19952 35213 178.5 277.75 398 0.973 12.099024792222 772.72300158165 3284.9462041897
56361	2955958 12060 19952 35213 178.5 277.75 398 -3.9364459514618 2.5 40.038900375366 349.61115446685
56360	2968018 12176 19913 35213 178.25 277.75 399 0 16.27499961853 2211.0402605738 29506.831160139
56359	2980194 13963 19874 35213 178 277.75 400 238.62097167969 785.82187652588 210233.94937897 114545661.01605
56358	2994157 14000 19874 35213 178 277.75 400 483.14999389648 483.14999389648 193259.99755859 93373566.64087
56341	3008157 13497 18146 35244 166.5 278 447 0.973 11.200708441096 789.27702537758 2867.9155959337
56340	3021654 13290 18146 35244 166.5 278 447 -3.9902358055115 2.5 35.285810470581 346.05311060723
56339	3034944 13269 18107 35244 166.25 278 448 0 15.02499961853 2228.2173641715 28001.355166454
56338	3048213 15684 18068 35244 166 278 449 486.85000610352 795.97582244873 242940.04706573 133746756.00418
56337	3063897 15706 18068 35244 166 278 449 235.60729980469 483.14999389648 208252.74078369 97852693.233249
vector 56582  IntersectionExampleScenario.node[96].veinsmobility  posx  ETV
vector 56583  IntersectionExampleScenario.node[96].veinsmobility  posy  ETV
vector 56584  IntersectionExampleScenario.node[96].veinsmobility  speed  ETV
vector 56585  IntersectionExampleScenario.node[96].veinsmobility  acceleration  ETV
vector 56586  IntersectionExampleScenario.node[96].veinsmobility  co2emission  ETV
56390	3080004 11277 21426 35480 188.25 280 368 0.973 11.648172402475 736.6421499804 3206.0165982619
56389	3091281 11751 21426 35480 188.25 280 368 -3.7055051326752 2.5 39.869146347046 335.93502912855
56388	3103032 11603 21389 35480 188 280 369 0 16.081922531128 2222.914325783 29515.338897744
56387	3114635 12931 21352 35480 187.75 280 370 235.76519775391 785.82187652588 195680.85759735 107627245.93974
[...]
vector 60219  IntersectionExampleScenario.node[615].veinsmobility  co2emission  ETV
vector 60222  IntersectionExampleScenario.node[616].veinsmobility  posx  ETV
vector 60223  IntersectionExampleScenario.node[616].veinsmobility  posy  ETV
vector 60224  IntersectionExampleScenario.node[616].veinsmobility  speed  ETV
vector 60225  IntersectionExampleScenario.node[616].veinsmobility  acceleration  ETV
vector 60226  IntersectionExampleScenario.node[616].veinsmobility  co2emission  ETV
vector 60229  IntersectionExampleScenario.node[617].veinsmobility  posx  ETV
vector 60230  IntersectionExampleScenario.node[617].veinsmobility  posy  ETV
vector 60231  IntersectionExampleScenario.node[617].veinsmobility  speed  ETV
vector 60232  IntersectionExampleScenario.node[617].veinsmobility  acceleration  ETV
vector 60233  IntersectionExampleScenario.node[617].veinsmobility  co2emission  ETV
vector 60236  IntersectionExampleScenario.node[618].veinsmobility  posx  ETV
vector 60237  IntersectionExampleScenario.node[618].veinsmobility  posy  ETV
vector 60238  IntersectionExampleScenario.node[618].veinsmobility  speed  ETV
vector 60239  IntersectionExampleScenario.node[618].veinsmobility  acceleration  ETV
vector 60240  IntersectionExampleScenario.node[618].veinsmobility  co2emission  ETV
60170	29649458 5839 284036 289306 1722.5 1762.75 162 0.973 11.36141391502 498.04660962162 2605.702682659
60169	29655297 5337 284036 289306 1722.5 1762.75 162 -3.4964065551758 2.5 37.15309715271 266.39968955849
60168	29660634 5717 284003 289306 1722.25 1762.75 163 5.6500000953674 15.25 2185.2570877075 30545.53155198
60167	29666351 6061 283970 289306 1722 1762.75 164 486.85000610352 733.75944519043 88224.134094238 48407865.340171
60166	29672412 6062 283970 289306 1722 1762.75 164 486.85000610352 785.82187652588 93854.859764099 55474393.684978
vector 60243  IntersectionExampleScenario.node[619].veinsmobility  posx  ETV
vector 60244  IntersectionExampleScenario.node[619].veinsmobility  posy  ETV
vector 60245  IntersectionExampleScenario.node[619].veinsmobility  speed  ETV
vector 60246  IntersectionExampleScenario.node[619].veinsmobility  acceleration  ETV
vector 60247  IntersectionExampleScenario.node[619].veinsmobility  co2emission  ETV
vector 60250  IntersectionExampleScenario.node[620].veinsmobility  posx  ETV
vector 60251  IntersectionExampleScenario.node[620].veinsmobility  posy  ETV
vector 60252  IntersectionExampleScenario.node[620].veinsmobility  speed  ETV
vector 60253  IntersectionExampleScenario.node[620].veinsmobility  acceleration  ETV
vector 60254  IntersectionExampleScenario.node[620].veinsmobility  co2emission  ETV
60100	29679286 10974 278301 290054 1680.75 1769.5 356 0.973 12.26218747632 744.18216083877 3470.7730251578
60099	29690260 10059 278301 290054 1680.75 1769.5 356 -6.9978852272034 4 41.227170944214 494.3043074932
60098	29700319 10141 278263 290054 1680.5 1769.5 357 0 16.5 2170.1600009203 31668.901593239
60097	29710460 13241 278224 290054 1680.25 1769.5 358 486.63604736328 785.82187652588 190112.5152359 103147098.19409
60096	29723701 13169 278224 290054 1680.25 1769.5 358 238.96862792969 483.14999389648 165266.60598755 77375999.693571
60044	29736870 13459 275312 290105 1658.5 1770 447 0.973 12.099024792222 825.39269094499 3416.698444067
60043	29750329 12105 275312 290105 1658.5 1770 447 -7.8777389526367 4 40.038900375366 507.63096320897
60042	29762434 12287 275281 290105 1658.25 1770 448 0 16.27499961853 2184.4825298786 31478.340064468
60041	29774721 16589 275250 290105 1658 1770 449 184.17810058594 483.36395263672 199979.23519897 91348952.518407
60040	29791310 16539 275250 290105 1658 1770 449 486.85000610352 734.86784362793 226682.31452942 115629153.99907
60121	29807849 10172 280318 290300 1696 1772 305 0.973 12.099024792222 681.25136774113 3235.2607955922
60120	29818021 10622 280318 290300 1696 1772 305 -3.8936998844147 2.5 40.378400802612 345.62309789226
60119	29828643 10512 280287 290300 1695.75 1772 306 0 16.27499961853 2182.9450667864 29411.083940679
60118	29839155 11333 280256 290300 1695.5 1772 307 486.85000610352 785.82187652588 166399.7873764 92233021.032059
60117	29850488 11337 280256 290300 1695.5 1772 307 237.23120117188 483.14999389648 140407.06542969 65303298.508581
60065	29861825 12668 277360 290369 1674.5 1772.75 394 0.973 11.36141391502 744.70000449253 2923.8178939035
60064	29874493 12576 277360 290369 1674.5 1772.75 394 -3.9581205844879 2.5 37.492597579956 321.97151907928
60063	29887069 12623 277322 290369 1674.25 1772.75 395 0 15.25 2179.2823465774 28333.259526248
60062	29899692 14622 277285 290369 1674 1772.75 396 184.17810058594 483.30087280273 172530.36178589 77348970.795955
60061	29914314 14640 277285 290369 1674 1772.75 396 486.85000610352 731.72351074219 201000.21418762 103188010.59634
vector 60257  IntersectionExampleScenario.node[621].veinsmobility  posx  ETV
vector 60258  IntersectionExampleScenario.node[621].veinsmobility  posy  ETV
vector 60259  IntersectionExampleScenario.node[621].veinsmobility  speed  ETV
vector 60260  IntersectionExampleScenario.node[621].veinsmobility  acceleration  ETV
vector 60261  IntersectionExampleScenario.node[621].veinsmobility  co2emission  ETV
60135	29929360 10189 280950 290586 1701.25 1775 296 0.973 11.200708441096 645.26714973271 2745.4495229055
60134	29939549 10810 280950 290586 1701.25 1775 296 -3.7359781265259 2.5 37.15309715271 319.7017386794
60133	29950359 10881 280917 290586 1701 1775 297 0 15.163046836853 2201.0518549755 27746.84451533
60132	29961240 10989 280884 290586 1700.75 1775 298 483.08422851562 785.82187652588 163220.95281219 91439247.769648
60131	29972229 11020 280884 290586 1700.75 1775 298 483.14999389648 731.97358703613 152467.49623108 79173423.221365
60184	29983249 5925 285329 290661 1733.75 1775.75 169 0.97223939240464 11.648172402475 537.30683589207 3023.6817811559
60183	29989174 5729 285329 290661 1733.75 1775.75 169 -2.7386856079102 2.5 38.680875778198 296.85559192458
60182	29994903 6061 285300 290661 1733.5 1775.75 170 5.6500000953674 15.64999961853 2209.7307190895 30247.413584828
60181	30000964 6318 285271 290661 1733.25 1775.75 171 238.46099853516 785.82187652588 89701.523048401 51158268.982043
60180	30007282 6329 285271 290661 1733.25 1775.75 171 483.14999389648 483.14999389648 82618.648956299 39917199.738971
vector 60264  IntersectionExampleScenario.node[622].veinsmobility  posx  ETV
vector 60265  IntersectionExampleScenario.node[622].veinsmobility  posy  ETV
vector 60266  IntersectionExampleScenario.node[622].veinsmobility  speed  ETV
vector 60267  IntersectionExampleScenario.node[622].veinsmobility  acceleration  ETV
vector 60268  IntersectionExampleScenario.node[622].veinsmobility  co2emission  ETV
60079	30014017 13651 277399 290867 1674.75 1777.75 413 0.973 11.36141391502 818.8956855976 3166.8708830069
60078	30027668 13606 277399 290867 1674.75 1777.75 413 -26.468166351318 4 38.171613693237 1244.2171468772
60077	30041274 13688 277360 290867 1674.5 1777.75 414 0 15.25 2287.0231539253 29549.40850057
60076	30054962 15312 277322 290867 1674.25 1777.75 415 159.76721191406 483.25405883789 177139.13946533 78328336.373777
60075	30070274 15348 277322 290867 1674.25 1777.75 415 486.85000610352 735.06092834473 210374.50749207 107851869.78667
vector 60271  IntersectionExampleScenario.node[623].veinsmobility  posx  ETV
vector 60272  IntersectionExampleScenario.node[623].veinsmobility  posy  ETV
vector 60273  IntersectionExampleScenario.node[623].veinsmobility  speed  ETV
vector 60274  IntersectionExampleScenario.node[623].veinsmobility  acceleration  ETV
vector 60275  IntersectionExampleScenario.node[623].veinsmobility  co2emission  ETV
60093	30086028 13825 278038 291142 1679 1780.25 406 0.973 11.36141391502 787.14324392979 3041.9495560632
60092	30099853 14128 278038 291142 1679 1780.25 406 -4.5 2.5 37.15309715271 518.18929581543
60091	30113981 13991 278001 291142 1678.75 1780.25 407 0 15.25 2259.7222721288 28942.272374129
60090	30127972 15065 277963 291142 1678.5 1780.25 408 165.23266601562 483.14999389648 173383.33843994 76109984.807411
60089	30143037 15090 277963 291142 1678.5 1780.25 408 486.85000610352 733.26167297363 206979.43173218 106197989.4645
60142	30158127 10761 281119 291304 1702.5 1781.75 318 0.973 11.648172402475 682.31469242045 3014.3466843025
60141	30168888 11279 281119 291304 1702.5 1781.75 318 -3.7232847213745 2.5 38.511121749878 336.16093012722
60140	30180167 11279 281084 291304 1702.25 1781.75 319 0 15.64999961853 2211.1505088666 28425.221217599
60139	30191446 11792 281049 291304 1702 1781.75 320 184.17810058594 486.85000610352 134499.93884277 58488134.328399
60138	30203238 11838 281049 291304 1702 1781.75 320 236.50042724609 486.85003662109 147378.42633057 69057573.271819
60149	30215076 11012 281473 291574 1705 1784.25 318 0.973 11.200708441096 670.12234018213 2732.0355881776
60148	30226088 11645 281473 291574 1705 1784.25 318 -3.7484965324402 2.5 36.134572982788 369.02852730265
60147	30237733 11432 281436 291574 1704.75 1784.25 319 0 15.02499961853 2266.5249563586 28452.322992474
60146	30249165 11773 281399 291574 1704.5 1784.25 320 168.58435058594 486.85000610352 132042.41473389 56708625.539224
60145	30260938 11839 281399 291574 1704.5 1784.25 320 237.81652832031 486.85003662109 147153.69564819 68870833.484338
vector 60278  IntersectionExampleScenario.node[624].veinsmobility  posx  ETV
vector 60279  IntersectionExampleScenario.node[624].veinsmobility  posy  ETV
vector 60280  IntersectionExampleScenario.node[624].veinsmobility  speed  ETV
vector 60281  IntersectionExampleScenario.node[624].veinsmobility  acceleration  ETV
vector 60282  IntersectionExampleScenario.node[624].veinsmobility  co2emission  ETV
60163	30273183 9419 282788 291769 1713.5 1786 291 0.973 11.648172402475 658.30933747982 3114.8973967233
60162	30282602 9833 282788 291769 1713.5 1786 291 -3.9574241638184 2.5000001192093 39.699392318726 469.63378183844
60161	30292435 9743 282749 291769 1713.25 1786 292 0 15.64999961853 2185.6972023249 27685.9912479
60160	30302178 10787 282710 291769 1713 1786 293 184.17810058594 483.14999389648 120300.58770752 51230705.643707
60159	30312965 10835 282710 291769 1713 1786 293 486.84994506836 733.26991271973 150674.66545105 78577901.178968
60212	30323800 6349 286474 291972 1742.25 1787.75 183 0.973 11.648172402475 557.99972640853 2993.8338139599
60211	30330149 6131 286474 291972 1742.25 1787.75 183 -3.1768035888672 2.5 37.662351608276 331.11777471957
60210	30336280 6528 286437 291972 1742 1787.75 184 5.4715871810913 15.64999961853 2205.8789625168 28592.135520963
60209	30342808 6821 286400 291972 1741.75 1787.75 185 184.17810058594 487.05490112305 74121.685699463 31505315.413837
60208	30349629 6831 286400 291972 1741.75 1787.75 185 237.11108398438 486.85000610352 81587.017883301 37003332.933738
60233	30356460 5654 288629 292860 1757.25 1796.25 157 0.973 11.810082123732 516.05014603198 2901.6798068193
60232	30362114 5477 288629 292860 1757.25 1796.25 157 -4.4743728637695 2.5 39.869146347046 298.64049900059
60231	30367591 5516 288596 292860 1757 1796.25 158 5.6500000953674 15.875 2189.2054738998 31802.312309849
60230	30373107 5863 288563 292860 1756.75 1796.25 159 184.17810058594 483.21469116211 63194.879730225 26842717.198473
60229	30378970 5868 288563 292860 1756.75 1796.25 159 486.85000610352 734.55615234375 85496.910293579 46892097.025554
vector 60285  IntersectionExampleScenario.node[625].veinsmobility  posx  ETV
vector 60286  IntersectionExampleScenario.node[625].veinsmobility  posy  ETV
vector 60287  IntersectionExampleScenario.node[625].veinsmobility  speed  ETV
vector 60288  IntersectionExampleScenario.node[625].veinsmobility  acceleration  ETV
vector 60289  IntersectionExampleScenario.node[625].veinsmobility  co2emission  ETV
60156	30385244 11024 281551 293235 1705.5 1800 379 0.97223939240464 11.648172402475 583.50562262612 1924.1165644735
60155	30396268 9793 281551 293235 1705.5 1800 379 -7.1630792617798 4 8.8999996185303 400.20586940489
60154	30406061 9990 281512 293235 1705.25 1800 380 0 15.64999961853 1200.3344380856 16427.305277073
60153	30416051 14095 281473 293235 1705 1800 381 483.14999389648 487.92489624023 184096.69464111 88954363.376011
60152	30430146 14067 281473 293235 1705 1800 381 184.17810058594 481.53927612305 166929.30187988 75323748.810338
60177	30444213 9009 284722 293235 1728.25 1800 288 0.973 11.200708441096 453.27145520884 1506.7362629282
60176	30453222 9414 284722 293235 1728.25 1800 288 -3.8910021781921 2.5 -7.9993228912354 213.89396132805
60175	30462636 9243 284693 293235 1728 1800 289 0 15.02499961853 1137.5086148074 13853.663898547
60174	30471879 10729 284664 293235 1727.75 1800 290 483.14999389648 483.14999389648 140113.49822998 67695835.81463
60173	30482608 10689 284664 293235 1727.75 1800 290 184.17810058594 467.54150390625 121800.31433105 53074222.451607
60191	30493297 8442 285391 293235 1734.25 1800 264 0.973 11.200708441096 432.02029288598 1519.3560402865
60190	30501739 9141 285391 293235 1734.25 1800 264 -3.7801129817963 2.5 -19.793982028961 212.6920487343
60189	30510880 8942 285360 293235 1734 1800 265 0 15.961497306824 1097.5500599863 13337.190750419
60188	30519822 9841 285329 293235 1733.75 1800 266 483.14999389648 483.14999389648 128517.89837646 62093421.816178
60187	30529663 9800 285329 293235 1733.75 1800 266 184.17810058594 458.93896484375 109381.51330566 46698342.90148
60198	30539463 7774 285457 293235 1734.75 1800 262 0.973 11.200708441096 426.12493764434 1481.7080122589
60197	30547237 7033 285457 293235 1734.75 1800 262 -6.7711477279663 2.5 -22.60000038147 295.80732551166
60196	30554270 7291 285424 293235 1734.5 1800 263 0 15.02499961853 1147.4394557476 15754.921279133
60195	30561561 9768 285391 293235 1734.25 1800 264 486.85000610352 486.85000610352 128528.40161133 62574053.10895
60194	30571329 9761 285391 293235 1734.25 1800 264 498.39999389648 785.82187652588 144606.8975296 81218072.092632
60205	30581090 7971 286155 293235 1740 1800 241 0.973 11.648172402475 395.44833818695 1515.2476166117
60204	30589061 8649 286155 293235 1740 1800 241 -4.5 2.5000000596046 -21.950237154961 262.00399300604
60203	30597710 8482 286119 293235 1739.75 1800 242 0 15.64999961853 1071.5553804347 13584.512206992
60202	30606192 8990 286084 293235 1739.5 1800 243 483.14999389648 483.14999389648 117405.44851685 56724441.734328
60201	30615182 8961 286084 293235 1739.5 1800 243 184.17810058594 452.42141723633 98128.492370605 41221261.498801
60219	30624143 6583 287697 293235 1750.75 1800 198 0.973 11.648172402475 354.58566478512 1481.9041776323
60218	30630726 7455 287697 293235 1750.75 1800 198 -3.8190987110138 2.5 -22.44550216198 191.28888834209
60217	30638181 7292 287660 293235 1750.5 1800 199 0 15.64999961853 1046.542995668 12770.155804827
60216	30645473 7400 287623 293235 1750.25 1800 200 483.14999389648 483.14999389648 96629.998779297 46686783.320434
60215	30652873 7356 287623 293235 1750.25 1800 200 184.17810058594 446.00045776367 77653.505615234 31529048.393796
60226	30660229 6339 287923 293235 1752.25 1800 192 0.973 11.200708441096 350.95160097436 1384.1064489731
60225	30666568 7175 287923 293235 1752.25 1800 192 -3.8185744285583 2.5 -22.60000038147 185.21515237043
60224	30673743 6977 287884 293235 1752 1800 193 0 15.02499961853 1123.0777404932 13846.191943036
60223	30680720 7177 287845 293235 1751.75 1800 194 486.85000610352 486.85000610352 94448.901184082 45982448.117941
60222	30687897 7163 287845 293235 1751.75 1800 194 504.79916381836 785.82187652588 111026.73595428 65164545.554486
60240	30695060 5091 289102 293235 1761 1800 157 0.97223939240464 11.648172402475 306.24036003271 1422.5190208062
60239	30700151 5841 289102 293235 1761 1800 157 -3.702011346817 2.5 -21.92755150795 183.85433542036
60238	30705992 5817 289071 293235 1760.75 1800 158 0 15.64999961853 1019.1749138925 12185.927731409
60237	30711809 5882 289040 293235 1760.5 1800 159 483.14999389648 483.14999389648 76820.849029541 37115992.739745
60236	30717691 5849 289040 293235 1760.5 1800 159 184.17810058594 439.15811157227 58746.618347168 22836202.674304
60247	30723540 4961 289612 293235 1765.5 1800 139 0.973 10.916047529558 423.98001517816 2227.6877152286
60246	30728501 4572 289612 293235 1765.5 1800 139 -3.2858943939209 2.5 34.437391281128 246.25478755217
60245	30733073 4875 289583 293235 1765.25 1800 140 5.6500000953674 14.625 1778.7694239616 23583.398585661
60244	30737948 5204 289554 293235 1765 1800 141 486.85000610352 785.82187652588 83077.334716797 50506523.379744
60243	30743152 5207 289554 293235 1765 1800 141 337.79229736328 483.14999389648 65003.41583252 30197757.07035
60254	30748359 4725 289779 293235 1767 1800 133 0.973 11.200708441096 417.13198589317 2124.7298264776
60253	30753084 4663 289779 293235 1767 1800 133 -3.2029190063477 2.5 34.438642501831 225.21029197493
60252	30757747 4909 289750 293235 1766.75 1800 134 5.6500000953674 15.02499961853 1715.1288900375 23060.680608445
60251	30762656 4963 289721 293235 1766.5 1800 135 184.17810058594 486.85000610352 51381.309051514 21099526.141706
60250	30767619 4984 289721 293235 1766.5 1800 135 359.47503662109 486.85000610352 63207.603515625 29753162.121725
60261	30772603 3629 290511 293235 1774.25 1800 104 0.973 11.200708441096 348.33713459212 2142.8814490004
60260	30776232 3616 290511 293235 1774.25 1800 104 -3.5325965881348 2.5 33.89999961853 221.94652556931
60259	30779848 3622 290486 293235 1774 1800 105 5.6500000953674 15.02499961853 1352.6979398727 18063.979252757
60258	30783470 3900 290461 293235 1773.75 1800 106 184.17810058594 486.85000610352 37064.056365967 14066581.191704
60257	30787370 3916 290461 293235 1773.75 1800 106 450.14468383789 486.85000610352 51334.236816406 24866170.639892
60268	30791286 2959 290840 293235 1777.5 1800 91 0.973 12.099024792222 255.26019341157 1519.6910649301
60267	30794245 3269 290840 293235 1777.5 1800 91 -2.1170196533203 2.5 -10.035375595093 183.20840685151
60266	30797514 3386 290813 293235 1777.25 1800 92 3.1411561965942 16.27499961853 1053.8570382595 13854.604227587
60265	30800900 3439 290786 293235 1777 1800 93 486.85000610352 486.85000610352 45277.050567627 22043132.345198
60264	30804339 3422 290786 293235 1777 1800 93 523.28646850586 785.82187652588 59626.133872986 38950177.260754
60275	30807761 2659 291087 293235 1779.75 1800 82 0.973 12.099024792222 240.20271869788 1491.7467077909
60274	30810420 2902 291087 293235 1779.75 1800 82 -2.1389389038086 2.5 -8.6303625106812 182.99233861718
60273	30813322 3047 291058 293235 1779.5 1800 83 3.4924094676971 16.27499961853 940.23079824448 12214.395725473
60272	30816369 3108 291029 293235 1779.25 1800 84 483.14999389648 483.14999389648 40584.599487305 19608448.994582
60271	30819477 3075 291029 293235 1779.25 1800 84 184.17810058594 418.37973022461 26243.623352051 8719701.3096046
60282	30822552 2134 291740 293235 1785.75 1800 58 1.5237915469079 11.200708441096 211.7474682582 1238.683133199
60281	30824686 2077 291740 293235 1785.75 1800 58 -0.17160415649414 2.5 36.813589096069 93.817300476458
60280	30826763 2171 291711 293235 1785.5 1800 59 5.6500000953674 15.02499961853 804.61080551147 11344.77030046
60279	30828934 2215 291682 293235 1785.25 1800 60 589.62036132812 785.82187652588 41818.750831604 29371318.934713
60278	30831149 2220 291682 293235 1785.25 1800 60 483.14999389648 483.14999389648 28988.999633789 14006034.99613
60289	30833369 256 293084 293235 1798.5 1800 7 5.2162187258585 7.726741696285 45.269477411621 297.66192607747
60288	30833625 186 293084 293235 1798.5 1800 7 2.4999980926514 2.5 17.499998092651 43.74999046326
60287	30833811 295 293059 293235 1798.25 1800 8 5.6500000953674 10.02499961853 62.699998855591 507.81747729302
60286	30834106 331 293034 293235 1798 1800 9 773.20001220703 785.82187652588 7026.2844314575 5485575.2121343
60285	30834437 331 293034 293235 1798 1800 9 483.14999389648 483.14999389648 4348.3499450684 2100905.2494196
55906	30834768 645 0 293234 0 1800 31 0 44 762 20318
55907	30835413 666 0 293234 0 1800 31 0 361 5603 1409745
