version 2
run nodebug-23-20200605-17:03:42-20012
attr configname nodebug
attr datetime 20200605-17:03:42
attr experiment nodebug
attr inifile omnetpp.ini
attr iterationvars ""
attr iterationvars2 $repetition=23
attr measurement ""
attr network "\"org.car2x.veins.modules.application.ExtTraCIScenarioManagerLaunchd.IntersectionExampleScenario\""
attr processid 20012
attr repetition 23
attr replication #23
attr resultdir results
attr runnumber 23
attr seedset 23
param **.coreDebug false
param **.debug false
param *.**.nic.mac1609_4.bitrate 18Mbps
param *.**.nic.mac1609_4.txPower 20mW
param *.**.nic.mac1609_4.useServiceChannel false
param *.**.nic.phy80211p.analogueModels "xmldoc(\"config.xml\")"
param *.**.nic.phy80211p.decider "xmldoc(\"config.xml\")"
param *.**.nic.phy80211p.sensitivity -89dBm
param *.**.nic.phy80211p.thermalNoise -110dBm
param *.**.nic.phy80211p.usePropagationDelay true
param *.**.nic.phy80211p.useThermalNoise true
param *.annotations.draw false
param *.connectionManager.alpha 2.0
param *.connectionManager.carrierFrequency "5.890e9 Hz"
param *.connectionManager.pMax 20mW
param *.connectionManager.sat -89dBm
param *.connectionManager.sendDirect true
param *.manager.autoShutdown true
param *.manager.host "\"localhost\""
param *.manager.launchConfig "xmldoc(\"paramics.launchd.xml\")"
param *.manager.margin 25
param *.manager.moduleDisplayString "\"\""
param *.manager.moduleName "\"node\""
param *.manager.moduleType "\"org.car2x.veins.nodes.Car\""
param *.manager.port 9999
param *.manager.updateInterval 250ms
param *.node[*0].veinsmobility.accidentCount 0
param *.node[*0].veinsmobility.accidentDuration 30s
param *.node[*0].veinsmobility.accidentStart 75s
param *.node[*].appl.LiderSelectZoneRadio 55.0
param *.node[*].appl.ShareDataZoneRadio 110.0
param *.node[*].appl.TiempoSemaforo 30.0
param *.node[*].appl.beaconInterval 1s
param *.node[*].appl.beaconPriority 3
param *.node[*].appl.dataOnSch false
param *.node[*].appl.dataPriority 2
param *.node[*].appl.debug false
param *.node[*].appl.headerLength "256 bit"
param *.node[*].appl.maxOffset 0.005s
param *.node[*].appl.sendBeacons false
param *.node[*].appl.sendData true
param *.node[*].applType "\"Dummy\""
param *.node[*].mobilityType "\"TraCIMobility\""
param *.node[*].mobilityType.debug true
param *.node[*].veinsmobility.x 0
param *.node[*].veinsmobility.y 0
param *.node[*].veinsmobility.z 1.895
param *.node[*].veinsmobilityType "\"org.car2x.veins.modules.mobility.traci.TraCIMobility\""
param *.node[*].veinsmobilityType.debug true
param *.playgroundSizeX 8500m
param *.playgroundSizeY 8500m
param *.playgroundSizeZ 50m
param *.world.use2D false
param *.world.useTorus false

scalar IntersectionExampleScenario.node[2].appl 	VehicleRemoved 	0
scalar IntersectionExampleScenario.node[2].appl 	ArrivedAtDest 	1
scalar IntersectionExampleScenario.node[2].appl 	IntersectionEnterTime 	10.5
scalar IntersectionExampleScenario.node[2].appl 	IntersectionExitTime 	33.610504022014
scalar IntersectionExampleScenario.node[2].appl 	NumberOfCollisions 	0
scalar IntersectionExampleScenario.node[2].nic.phy80211p 	busyTime 	0
scalar IntersectionExampleScenario.node[2].nic.mac1609_4 	ReceivedUnicastPackets 	0
scalar IntersectionExampleScenario.node[2].nic.mac1609_4 	ReceivedBroadcasts 	0
scalar IntersectionExampleScenario.node[2].nic.mac1609_4 	SentPackets 	0
scalar IntersectionExampleScenario.node[2].nic.mac1609_4 	SNIRLostPackets 	0
scalar IntersectionExampleScenario.node[2].nic.mac1609_4 	RXTXLostPackets 	0
scalar IntersectionExampleScenario.node[2].nic.mac1609_4 	TotalLostPackets 	0
scalar IntersectionExampleScenario.node[2].nic.mac1609_4 	DroppedPacketsInMac 	0
scalar IntersectionExampleScenario.node[2].nic.mac1609_4 	TooLittleTime 	0
scalar IntersectionExampleScenario.node[2].nic.mac1609_4 	TimesIntoBackoff 	0
scalar IntersectionExampleScenario.node[2].nic.mac1609_4 	SlotsBackoff 	0
scalar IntersectionExampleScenario.node[2].nic.mac1609_4 	NumInternalContention 	0
scalar IntersectionExampleScenario.node[2].nic.mac1609_4 	totalBusyTime 	0
scalar IntersectionExampleScenario.node[2].veinsmobility 	startTime 	10.5
scalar IntersectionExampleScenario.node[2].veinsmobility 	totalTime 	39.5
scalar IntersectionExampleScenario.node[2].veinsmobility 	stopTime 	50.25
scalar IntersectionExampleScenario.node[2].veinsmobility 	minSpeed 	5.6500000953674
scalar IntersectionExampleScenario.node[2].veinsmobility 	maxSpeed 	15.875
scalar IntersectionExampleScenario.node[2].veinsmobility 	totalDistance 	545.86136006005
scalar IntersectionExampleScenario.node[2].veinsmobility 	totalCO2Emission 	128.85763965315
scalar IntersectionExampleScenario.node[3].appl 	VehicleRemoved 	0
scalar IntersectionExampleScenario.node[3].appl 	ArrivedAtDest 	1
scalar IntersectionExampleScenario.node[3].appl 	IntersectionEnterTime 	12.5
scalar IntersectionExampleScenario.node[3].appl 	IntersectionExitTime 	36.12230336474
scalar IntersectionExampleScenario.node[3].appl 	NumberOfCollisions 	0
scalar IntersectionExampleScenario.node[3].nic.phy80211p 	busyTime 	0
scalar IntersectionExampleScenario.node[3].nic.mac1609_4 	ReceivedUnicastPackets 	0
scalar IntersectionExampleScenario.node[3].nic.mac1609_4 	ReceivedBroadcasts 	0
scalar IntersectionExampleScenario.node[3].nic.mac1609_4 	SentPackets 	0
scalar IntersectionExampleScenario.node[3].nic.mac1609_4 	SNIRLostPackets 	0
scalar IntersectionExampleScenario.node[3].nic.mac1609_4 	RXTXLostPackets 	0
scalar IntersectionExampleScenario.node[3].nic.mac1609_4 	TotalLostPackets 	0
scalar IntersectionExampleScenario.node[3].nic.mac1609_4 	DroppedPacketsInMac 	0
scalar IntersectionExampleScenario.node[3].nic.mac1609_4 	TooLittleTime 	0
scalar IntersectionExampleScenario.node[3].nic.mac1609_4 	TimesIntoBackoff 	0
scalar IntersectionExampleScenario.node[3].nic.mac1609_4 	SlotsBackoff 	0
scalar IntersectionExampleScenario.node[3].nic.mac1609_4 	NumInternalContention 	0
scalar IntersectionExampleScenario.node[3].nic.mac1609_4 	totalBusyTime 	0
scalar IntersectionExampleScenario.node[3].veinsmobility 	startTime 	12.5
scalar IntersectionExampleScenario.node[3].veinsmobility 	totalTime 	40
scalar IntersectionExampleScenario.node[3].veinsmobility 	stopTime 	52.75
scalar IntersectionExampleScenario.node[3].veinsmobility 	minSpeed 	5.6500000953674
scalar IntersectionExampleScenario.node[3].veinsmobility 	maxSpeed 	15.02499961853
scalar IntersectionExampleScenario.node[3].veinsmobility 	totalDistance 	553.01731109619
scalar IntersectionExampleScenario.node[3].veinsmobility 	totalCO2Emission 	114.18256448094
scalar IntersectionExampleScenario.node[4].appl 	VehicleRemoved 	0
scalar IntersectionExampleScenario.node[4].appl 	ArrivedAtDest 	1
scalar IntersectionExampleScenario.node[4].appl 	IntersectionEnterTime 	18.75
scalar IntersectionExampleScenario.node[4].appl 	IntersectionExitTime 	42.285991804703
scalar IntersectionExampleScenario.node[4].appl 	NumberOfCollisions 	0
scalar IntersectionExampleScenario.node[4].nic.phy80211p 	busyTime 	0
scalar IntersectionExampleScenario.node[4].nic.mac1609_4 	ReceivedUnicastPackets 	0
scalar IntersectionExampleScenario.node[4].nic.mac1609_4 	ReceivedBroadcasts 	0
scalar IntersectionExampleScenario.node[4].nic.mac1609_4 	SentPackets 	0
scalar IntersectionExampleScenario.node[4].nic.mac1609_4 	SNIRLostPackets 	0
scalar IntersectionExampleScenario.node[4].nic.mac1609_4 	RXTXLostPackets 	0
scalar IntersectionExampleScenario.node[4].nic.mac1609_4 	TotalLostPackets 	0
scalar IntersectionExampleScenario.node[4].nic.mac1609_4 	DroppedPacketsInMac 	0
scalar IntersectionExampleScenario.node[4].nic.mac1609_4 	TooLittleTime 	0
scalar IntersectionExampleScenario.node[4].nic.mac1609_4 	TimesIntoBackoff 	0
scalar IntersectionExampleScenario.node[4].nic.mac1609_4 	SlotsBackoff 	0
scalar IntersectionExampleScenario.node[4].nic.mac1609_4 	NumInternalContention 	0
scalar IntersectionExampleScenario.node[4].nic.mac1609_4 	totalBusyTime 	0
scalar IntersectionExampleScenario.node[4].veinsmobility 	startTime 	18.75
scalar IntersectionExampleScenario.node[4].veinsmobility 	totalTime 	40
scalar IntersectionExampleScenario.node[4].veinsmobility 	stopTime 	59
scalar IntersectionExampleScenario.node[4].veinsmobility 	minSpeed 	5.6500000953674
scalar IntersectionExampleScenario.node[4].veinsmobility 	maxSpeed 	15.02499961853
scalar IntersectionExampleScenario.node[4].veinsmobility 	totalDistance 	553.01731109619
scalar IntersectionExampleScenario.node[4].veinsmobility 	totalCO2Emission 	114.18256448094
scalar IntersectionExampleScenario.node[6].appl 	VehicleRemoved 	0
scalar IntersectionExampleScenario.node[6].appl 	ArrivedAtDest 	1
scalar IntersectionExampleScenario.node[6].appl 	IntersectionEnterTime 	20.75
scalar IntersectionExampleScenario.node[6].appl 	IntersectionExitTime 	44.793311179703
scalar IntersectionExampleScenario.node[6].appl 	NumberOfCollisions 	0
scalar IntersectionExampleScenario.node[6].nic.phy80211p 	busyTime 	0
scalar IntersectionExampleScenario.node[6].nic.mac1609_4 	ReceivedUnicastPackets 	0
scalar IntersectionExampleScenario.node[6].nic.mac1609_4 	ReceivedBroadcasts 	0
scalar IntersectionExampleScenario.node[6].nic.mac1609_4 	SentPackets 	0
scalar IntersectionExampleScenario.node[6].nic.mac1609_4 	SNIRLostPackets 	0
scalar IntersectionExampleScenario.node[6].nic.mac1609_4 	RXTXLostPackets 	0
scalar IntersectionExampleScenario.node[6].nic.mac1609_4 	TotalLostPackets 	0
scalar IntersectionExampleScenario.node[6].nic.mac1609_4 	DroppedPacketsInMac 	0
scalar IntersectionExampleScenario.node[6].nic.mac1609_4 	TooLittleTime 	0
scalar IntersectionExampleScenario.node[6].nic.mac1609_4 	TimesIntoBackoff 	0
scalar IntersectionExampleScenario.node[6].nic.mac1609_4 	SlotsBackoff 	0
scalar IntersectionExampleScenario.node[6].nic.mac1609_4 	NumInternalContention 	0
scalar IntersectionExampleScenario.node[6].nic.mac1609_4 	totalBusyTime 	0
scalar IntersectionExampleScenario.node[6].veinsmobility 	startTime 	20.75
scalar IntersectionExampleScenario.node[6].veinsmobility 	totalTime 	40
scalar IntersectionExampleScenario.node[6].veinsmobility 	stopTime 	61
scalar IntersectionExampleScenario.node[6].veinsmobility 	minSpeed 	5.6500000953674
scalar IntersectionExampleScenario.node[6].veinsmobility 	maxSpeed 	15.374287605286
scalar IntersectionExampleScenario.node[6].veinsmobility 	totalDistance 	571.56464385986
scalar IntersectionExampleScenario.node[6].veinsmobility 	totalCO2Emission 	120.52879276692
scalar IntersectionExampleScenario.node[7].appl 	VehicleRemoved 	0
scalar IntersectionExampleScenario.node[7].appl 	ArrivedAtDest 	1
scalar IntersectionExampleScenario.node[7].appl 	IntersectionEnterTime 	22.25
scalar IntersectionExampleScenario.node[7].appl 	IntersectionExitTime 	45.339731479937
scalar IntersectionExampleScenario.node[7].appl 	NumberOfCollisions 	0
scalar IntersectionExampleScenario.node[7].nic.phy80211p 	busyTime 	0
scalar IntersectionExampleScenario.node[7].nic.mac1609_4 	ReceivedUnicastPackets 	0
scalar IntersectionExampleScenario.node[7].nic.mac1609_4 	ReceivedBroadcasts 	0
scalar IntersectionExampleScenario.node[7].nic.mac1609_4 	SentPackets 	0
scalar IntersectionExampleScenario.node[7].nic.mac1609_4 	SNIRLostPackets 	0
scalar IntersectionExampleScenario.node[7].nic.mac1609_4 	RXTXLostPackets 	0
scalar IntersectionExampleScenario.node[7].nic.mac1609_4 	TotalLostPackets 	0
scalar IntersectionExampleScenario.node[7].nic.mac1609_4 	DroppedPacketsInMac 	0
scalar IntersectionExampleScenario.node[7].nic.mac1609_4 	TooLittleTime 	0
scalar IntersectionExampleScenario.node[7].nic.mac1609_4 	TimesIntoBackoff 	0
scalar IntersectionExampleScenario.node[7].nic.mac1609_4 	SlotsBackoff 	0
scalar IntersectionExampleScenario.node[7].nic.mac1609_4 	NumInternalContention 	0
scalar IntersectionExampleScenario.node[7].nic.mac1609_4 	totalBusyTime 	0
scalar IntersectionExampleScenario.node[7].veinsmobility 	startTime 	22.25
scalar IntersectionExampleScenario.node[7].veinsmobility 	totalTime 	39
scalar IntersectionExampleScenario.node[7].veinsmobility 	stopTime 	61.5
scalar IntersectionExampleScenario.node[7].veinsmobility 	minSpeed 	5.6500000953674
scalar IntersectionExampleScenario.node[7].veinsmobility 	maxSpeed 	15.64999961853
scalar IntersectionExampleScenario.node[7].veinsmobility 	totalDistance 	551.77891540527
scalar IntersectionExampleScenario.node[7].veinsmobility 	totalCO2Emission 	116.79376875893
scalar IntersectionExampleScenario.node[8].appl 	VehicleRemoved 	0
scalar IntersectionExampleScenario.node[8].appl 	ArrivedAtDest 	1
scalar IntersectionExampleScenario.node[8].appl 	IntersectionEnterTime 	23.25
scalar IntersectionExampleScenario.node[8].appl 	IntersectionExitTime 	48.759691760875
scalar IntersectionExampleScenario.node[8].appl 	NumberOfCollisions 	0
scalar IntersectionExampleScenario.node[8].nic.phy80211p 	busyTime 	0
scalar IntersectionExampleScenario.node[8].nic.mac1609_4 	ReceivedUnicastPackets 	0
scalar IntersectionExampleScenario.node[8].nic.mac1609_4 	ReceivedBroadcasts 	0
scalar IntersectionExampleScenario.node[8].nic.mac1609_4 	SentPackets 	0
scalar IntersectionExampleScenario.node[8].nic.mac1609_4 	SNIRLostPackets 	0
scalar IntersectionExampleScenario.node[8].nic.mac1609_4 	RXTXLostPackets 	0
scalar IntersectionExampleScenario.node[8].nic.mac1609_4 	TotalLostPackets 	0
scalar IntersectionExampleScenario.node[8].nic.mac1609_4 	DroppedPacketsInMac 	0
scalar IntersectionExampleScenario.node[8].nic.mac1609_4 	TooLittleTime 	0
scalar IntersectionExampleScenario.node[8].nic.mac1609_4 	TimesIntoBackoff 	0
scalar IntersectionExampleScenario.node[8].nic.mac1609_4 	SlotsBackoff 	0
scalar IntersectionExampleScenario.node[8].nic.mac1609_4 	NumInternalContention 	0
scalar IntersectionExampleScenario.node[8].nic.mac1609_4 	totalBusyTime 	0
scalar IntersectionExampleScenario.node[8].veinsmobility 	startTime 	23.25
scalar IntersectionExampleScenario.node[8].veinsmobility 	totalTime 	42.5
scalar IntersectionExampleScenario.node[8].veinsmobility 	stopTime 	66
scalar IntersectionExampleScenario.node[8].veinsmobility 	minSpeed 	5.6500000953674
scalar IntersectionExampleScenario.node[8].veinsmobility 	maxSpeed 	15.360035896301
scalar IntersectionExampleScenario.node[8].veinsmobility 	totalDistance 	567.58523515041
scalar IntersectionExampleScenario.node[8].veinsmobility 	totalCO2Emission 	132.42390212256
scalar IntersectionExampleScenario.node[0].appl 	VehicleRemoved 	0
scalar IntersectionExampleScenario.node[0].appl 	ArrivedAtDest 	1
scalar IntersectionExampleScenario.node[0].appl 	IntersectionEnterTime 	4.5
scalar IntersectionExampleScenario.node[0].appl 	IntersectionExitTime 	50.785299480864
scalar IntersectionExampleScenario.node[0].appl 	NumberOfCollisions 	0
scalar IntersectionExampleScenario.node[0].nic.phy80211p 	busyTime 	0
scalar IntersectionExampleScenario.node[0].nic.mac1609_4 	ReceivedUnicastPackets 	0
scalar IntersectionExampleScenario.node[0].nic.mac1609_4 	ReceivedBroadcasts 	0
scalar IntersectionExampleScenario.node[0].nic.mac1609_4 	SentPackets 	0
scalar IntersectionExampleScenario.node[0].nic.mac1609_4 	SNIRLostPackets 	0
scalar IntersectionExampleScenario.node[0].nic.mac1609_4 	RXTXLostPackets 	0
scalar IntersectionExampleScenario.node[0].nic.mac1609_4 	TotalLostPackets 	0
scalar IntersectionExampleScenario.node[0].nic.mac1609_4 	DroppedPacketsInMac 	0
scalar IntersectionExampleScenario.node[0].nic.mac1609_4 	TooLittleTime 	0
scalar IntersectionExampleScenario.node[0].nic.mac1609_4 	TimesIntoBackoff 	0
scalar IntersectionExampleScenario.node[0].nic.mac1609_4 	SlotsBackoff 	0
scalar IntersectionExampleScenario.node[0].nic.mac1609_4 	NumInternalContention 	0
scalar IntersectionExampleScenario.node[0].nic.mac1609_4 	totalBusyTime 	0
scalar IntersectionExampleScenario.node[0].veinsmobility 	startTime 	4.5
scalar IntersectionExampleScenario.node[0].veinsmobility 	totalTime 	62.5
scalar IntersectionExampleScenario.node[0].veinsmobility 	stopTime 	67.25
scalar IntersectionExampleScenario.node[0].veinsmobility 	minSpeed 	0
scalar IntersectionExampleScenario.node[0].veinsmobility 	maxSpeed 	15.64999961853
scalar IntersectionExampleScenario.node[0].veinsmobility 	totalDistance 	549.8151028676
scalar IntersectionExampleScenario.node[0].veinsmobility 	totalCO2Emission 	154.03021450354
scalar IntersectionExampleScenario.node[1].appl 	VehicleRemoved 	0
scalar IntersectionExampleScenario.node[1].appl 	ArrivedAtDest 	1
scalar IntersectionExampleScenario.node[1].appl 	IntersectionEnterTime 	6.25
scalar IntersectionExampleScenario.node[1].appl 	IntersectionExitTime 	52.049055308278
scalar IntersectionExampleScenario.node[1].appl 	NumberOfCollisions 	0
scalar IntersectionExampleScenario.node[1].nic.phy80211p 	busyTime 	0
scalar IntersectionExampleScenario.node[1].nic.mac1609_4 	ReceivedUnicastPackets 	0
scalar IntersectionExampleScenario.node[1].nic.mac1609_4 	ReceivedBroadcasts 	0
scalar IntersectionExampleScenario.node[1].nic.mac1609_4 	SentPackets 	0
scalar IntersectionExampleScenario.node[1].nic.mac1609_4 	SNIRLostPackets 	0
scalar IntersectionExampleScenario.node[1].nic.mac1609_4 	RXTXLostPackets 	0
scalar IntersectionExampleScenario.node[1].nic.mac1609_4 	TotalLostPackets 	0
scalar IntersectionExampleScenario.node[1].nic.mac1609_4 	DroppedPacketsInMac 	0
scalar IntersectionExampleScenario.node[1].nic.mac1609_4 	TooLittleTime 	0
scalar IntersectionExampleScenario.node[1].nic.mac1609_4 	TimesIntoBackoff 	0
scalar IntersectionExampleScenario.node[1].nic.mac1609_4 	SlotsBackoff 	0
scalar IntersectionExampleScenario.node[1].nic.mac1609_4 	NumInternalContention 	0
scalar IntersectionExampleScenario.node[1].nic.mac1609_4 	totalBusyTime 	0
scalar IntersectionExampleScenario.node[1].veinsmobility 	startTime 	6.25
scalar IntersectionExampleScenario.node[1].veinsmobility 	totalTime 	62.25
scalar IntersectionExampleScenario.node[1].veinsmobility 	stopTime 	68.75
scalar IntersectionExampleScenario.node[1].veinsmobility 	minSpeed 	0
scalar IntersectionExampleScenario.node[1].veinsmobility 	maxSpeed 	15.875
scalar IntersectionExampleScenario.node[1].veinsmobility 	totalDistance 	565.3258007598
scalar IntersectionExampleScenario.node[1].veinsmobility 	totalCO2Emission 	159.33460412076
scalar IntersectionExampleScenario.node[5].appl 	VehicleRemoved 	0
scalar IntersectionExampleScenario.node[5].appl 	ArrivedAtDest 	1
scalar IntersectionExampleScenario.node[5].appl 	IntersectionEnterTime 	20.25
scalar IntersectionExampleScenario.node[5].appl 	IntersectionExitTime 	54.000066101435
scalar IntersectionExampleScenario.node[5].appl 	NumberOfCollisions 	0
scalar IntersectionExampleScenario.node[5].nic.phy80211p 	busyTime 	0
scalar IntersectionExampleScenario.node[5].nic.mac1609_4 	ReceivedUnicastPackets 	0
scalar IntersectionExampleScenario.node[5].nic.mac1609_4 	ReceivedBroadcasts 	0
scalar IntersectionExampleScenario.node[5].nic.mac1609_4 	SentPackets 	0
scalar IntersectionExampleScenario.node[5].nic.mac1609_4 	SNIRLostPackets 	0
scalar IntersectionExampleScenario.node[5].nic.mac1609_4 	RXTXLostPackets 	0
scalar IntersectionExampleScenario.node[5].nic.mac1609_4 	TotalLostPackets 	0
scalar IntersectionExampleScenario.node[5].nic.mac1609_4 	DroppedPacketsInMac 	0
scalar IntersectionExampleScenario.node[5].nic.mac1609_4 	TooLittleTime 	0
scalar IntersectionExampleScenario.node[5].nic.mac1609_4 	TimesIntoBackoff 	0
scalar IntersectionExampleScenario.node[5].nic.mac1609_4 	SlotsBackoff 	0
scalar IntersectionExampleScenario.node[5].nic.mac1609_4 	NumInternalContention 	0
scalar IntersectionExampleScenario.node[5].nic.mac1609_4 	totalBusyTime 	0
scalar IntersectionExampleScenario.node[5].veinsmobility 	startTime 	20.25
scalar IntersectionExampleScenario.node[5].veinsmobility 	totalTime 	49.75
scalar IntersectionExampleScenario.node[5].veinsmobility 	stopTime 	70.25
scalar IntersectionExampleScenario.node[5].veinsmobility 	minSpeed 	1.2252668142319
scalar IntersectionExampleScenario.node[5].veinsmobility 	maxSpeed 	16.27499961853
scalar IntersectionExampleScenario.node[5].veinsmobility 	totalDistance 	543.69625762657
scalar IntersectionExampleScenario.node[5].veinsmobility 	totalCO2Emission 	144.30356191777
scalar IntersectionExampleScenario.node[18].appl 	VehicleRemoved 	0
scalar IntersectionExampleScenario.node[18].appl 	ArrivedAtDest 	1
scalar IntersectionExampleScenario.node[18].appl 	IntersectionEnterTime 	41.25
scalar IntersectionExampleScenario.node[18].appl 	IntersectionExitTime 	64.597913556994
scalar IntersectionExampleScenario.node[18].appl 	NumberOfCollisions 	0
scalar IntersectionExampleScenario.node[18].nic.phy80211p 	busyTime 	0
scalar IntersectionExampleScenario.node[18].nic.mac1609_4 	ReceivedUnicastPackets 	0
scalar IntersectionExampleScenario.node[18].nic.mac1609_4 	ReceivedBroadcasts 	0
scalar IntersectionExampleScenario.node[18].nic.mac1609_4 	SentPackets 	0
scalar IntersectionExampleScenario.node[18].nic.mac1609_4 	SNIRLostPackets 	0
scalar IntersectionExampleScenario.node[18].nic.mac1609_4 	RXTXLostPackets 	0
scalar IntersectionExampleScenario.node[18].nic.mac1609_4 	TotalLostPackets 	0
scalar IntersectionExampleScenario.node[18].nic.mac1609_4 	DroppedPacketsInMac 	0
scalar IntersectionExampleScenario.node[18].nic.mac1609_4 	TooLittleTime 	0
scalar IntersectionExampleScenario.node[18].nic.mac1609_4 	TimesIntoBackoff 	0
scalar IntersectionExampleScenario.node[18].nic.mac1609_4 	SlotsBackoff 	0
scalar IntersectionExampleScenario.node[18].nic.mac1609_4 	NumInternalContention 	0
scalar IntersectionExampleScenario.node[18].nic.mac1609_4 	totalBusyTime 	0
scalar IntersectionExampleScenario.node[18].veinsmobility 	startTime 	41.25
scalar IntersectionExampleScenario.node[18].veinsmobility 	totalTime 	39.5
scalar IntersectionExampleScenario.node[18].veinsmobility 	stopTime 	81
scalar IntersectionExampleScenario.node[18].veinsmobility 	minSpeed 	5.6500000953674
scalar IntersectionExampleScenario.node[18].veinsmobility 	maxSpeed 	15.64999961853
scalar IntersectionExampleScenario.node[18].veinsmobility 	totalDistance 	549.7429964961
scalar IntersectionExampleScenario.node[18].veinsmobility 	totalCO2Emission 	122.48462072709
scalar IntersectionExampleScenario.node[20].appl 	VehicleRemoved 	0
scalar IntersectionExampleScenario.node[20].appl 	ArrivedAtDest 	1
scalar IntersectionExampleScenario.node[20].appl 	IntersectionEnterTime 	44.75
scalar IntersectionExampleScenario.node[20].appl 	IntersectionExitTime 	68.26159075083
scalar IntersectionExampleScenario.node[20].appl 	NumberOfCollisions 	0
scalar IntersectionExampleScenario.node[20].nic.phy80211p 	busyTime 	0
scalar IntersectionExampleScenario.node[20].nic.mac1609_4 	ReceivedUnicastPackets 	0
scalar IntersectionExampleScenario.node[20].nic.mac1609_4 	ReceivedBroadcasts 	0
scalar IntersectionExampleScenario.node[20].nic.mac1609_4 	SentPackets 	0
scalar IntersectionExampleScenario.node[20].nic.mac1609_4 	SNIRLostPackets 	0
scalar IntersectionExampleScenario.node[20].nic.mac1609_4 	RXTXLostPackets 	0
scalar IntersectionExampleScenario.node[20].nic.mac1609_4 	TotalLostPackets 	0
scalar IntersectionExampleScenario.node[20].nic.mac1609_4 	DroppedPacketsInMac 	0
scalar IntersectionExampleScenario.node[20].nic.mac1609_4 	TooLittleTime 	0
scalar IntersectionExampleScenario.node[20].nic.mac1609_4 	TimesIntoBackoff 	0
scalar IntersectionExampleScenario.node[20].nic.mac1609_4 	SlotsBackoff 	0
scalar IntersectionExampleScenario.node[20].nic.mac1609_4 	NumInternalContention 	0
scalar IntersectionExampleScenario.node[20].nic.mac1609_4 	totalBusyTime 	0
scalar IntersectionExampleScenario.node[20].veinsmobility 	startTime 	44.75
scalar IntersectionExampleScenario.node[20].veinsmobility 	totalTime 	39.5
scalar IntersectionExampleScenario.node[20].veinsmobility 	stopTime 	84.5
scalar IntersectionExampleScenario.node[20].veinsmobility 	minSpeed 	5.6500000953674
scalar IntersectionExampleScenario.node[20].veinsmobility 	maxSpeed 	16.5
scalar IntersectionExampleScenario.node[20].veinsmobility 	totalDistance 	554.03752055881
scalar IntersectionExampleScenario.node[20].veinsmobility 	totalCO2Emission 	133.78719954083
scalar IntersectionExampleScenario.node[9].appl 	VehicleRemoved 	0
scalar IntersectionExampleScenario.node[9].appl 	ArrivedAtDest 	1
scalar IntersectionExampleScenario.node[9].appl 	IntersectionEnterTime 	24.75
scalar IntersectionExampleScenario.node[9].appl 	IntersectionExitTime 	86.568496911379
scalar IntersectionExampleScenario.node[9].appl 	NumberOfCollisions 	0
scalar IntersectionExampleScenario.node[9].nic.phy80211p 	busyTime 	0
scalar IntersectionExampleScenario.node[9].nic.mac1609_4 	ReceivedUnicastPackets 	0
scalar IntersectionExampleScenario.node[9].nic.mac1609_4 	ReceivedBroadcasts 	0
scalar IntersectionExampleScenario.node[9].nic.mac1609_4 	SentPackets 	0
scalar IntersectionExampleScenario.node[9].nic.mac1609_4 	SNIRLostPackets 	0
scalar IntersectionExampleScenario.node[9].nic.mac1609_4 	RXTXLostPackets 	0
scalar IntersectionExampleScenario.node[9].nic.mac1609_4 	TotalLostPackets 	0
scalar IntersectionExampleScenario.node[9].nic.mac1609_4 	DroppedPacketsInMac 	0
scalar IntersectionExampleScenario.node[9].nic.mac1609_4 	TooLittleTime 	0
scalar IntersectionExampleScenario.node[9].nic.mac1609_4 	TimesIntoBackoff 	0
scalar IntersectionExampleScenario.node[9].nic.mac1609_4 	SlotsBackoff 	0
scalar IntersectionExampleScenario.node[9].nic.mac1609_4 	NumInternalContention 	0
scalar IntersectionExampleScenario.node[9].nic.mac1609_4 	totalBusyTime 	0
scalar IntersectionExampleScenario.node[9].veinsmobility 	startTime 	24.75
scalar IntersectionExampleScenario.node[9].veinsmobility 	totalTime 	78
scalar IntersectionExampleScenario.node[9].veinsmobility 	stopTime 	103
scalar IntersectionExampleScenario.node[9].veinsmobility 	minSpeed 	0
scalar IntersectionExampleScenario.node[9].veinsmobility 	maxSpeed 	16.5
scalar IntersectionExampleScenario.node[9].veinsmobility 	totalDistance 	546.5805502072
scalar IntersectionExampleScenario.node[9].veinsmobility 	totalCO2Emission 	175.41981081747
scalar IntersectionExampleScenario.node[10].appl 	VehicleRemoved 	0
scalar IntersectionExampleScenario.node[10].appl 	ArrivedAtDest 	1
scalar IntersectionExampleScenario.node[10].appl 	IntersectionEnterTime 	26.25
scalar IntersectionExampleScenario.node[10].appl 	IntersectionExitTime 	88.286600747466
scalar IntersectionExampleScenario.node[10].appl 	NumberOfCollisions 	0
scalar IntersectionExampleScenario.node[10].nic.phy80211p 	busyTime 	0
scalar IntersectionExampleScenario.node[10].nic.mac1609_4 	ReceivedUnicastPackets 	0
scalar IntersectionExampleScenario.node[10].nic.mac1609_4 	ReceivedBroadcasts 	0
scalar IntersectionExampleScenario.node[10].nic.mac1609_4 	SentPackets 	0
scalar IntersectionExampleScenario.node[10].nic.mac1609_4 	SNIRLostPackets 	0
scalar IntersectionExampleScenario.node[10].nic.mac1609_4 	RXTXLostPackets 	0
scalar IntersectionExampleScenario.node[10].nic.mac1609_4 	TotalLostPackets 	0
scalar IntersectionExampleScenario.node[10].nic.mac1609_4 	DroppedPacketsInMac 	0
scalar IntersectionExampleScenario.node[10].nic.mac1609_4 	TooLittleTime 	0
scalar IntersectionExampleScenario.node[10].nic.mac1609_4 	TimesIntoBackoff 	0
scalar IntersectionExampleScenario.node[10].nic.mac1609_4 	SlotsBackoff 	0
scalar IntersectionExampleScenario.node[10].nic.mac1609_4 	NumInternalContention 	0
scalar IntersectionExampleScenario.node[10].nic.mac1609_4 	totalBusyTime 	0
scalar IntersectionExampleScenario.node[10].veinsmobility 	startTime 	26.25
scalar IntersectionExampleScenario.node[10].veinsmobility 	totalTime 	78
scalar IntersectionExampleScenario.node[10].veinsmobility 	stopTime 	104.5
scalar IntersectionExampleScenario.node[10].veinsmobility 	minSpeed 	0
scalar IntersectionExampleScenario.node[10].veinsmobility 	maxSpeed 	16
scalar IntersectionExampleScenario.node[10].veinsmobility 	totalDistance 	570.17721067402
scalar IntersectionExampleScenario.node[10].veinsmobility 	totalCO2Emission 	174.52909409403
scalar IntersectionExampleScenario.node[14].appl 	VehicleRemoved 	0
scalar IntersectionExampleScenario.node[14].appl 	ArrivedAtDest 	1
scalar IntersectionExampleScenario.node[14].appl 	IntersectionEnterTime 	34.75
scalar IntersectionExampleScenario.node[14].appl 	IntersectionExitTime 	90.551568784838
scalar IntersectionExampleScenario.node[14].appl 	NumberOfCollisions 	0
scalar IntersectionExampleScenario.node[14].nic.phy80211p 	busyTime 	0
scalar IntersectionExampleScenario.node[14].nic.mac1609_4 	ReceivedUnicastPackets 	0
scalar IntersectionExampleScenario.node[14].nic.mac1609_4 	ReceivedBroadcasts 	0
scalar IntersectionExampleScenario.node[14].nic.mac1609_4 	SentPackets 	0
scalar IntersectionExampleScenario.node[14].nic.mac1609_4 	SNIRLostPackets 	0
scalar IntersectionExampleScenario.node[14].nic.mac1609_4 	RXTXLostPackets 	0
scalar IntersectionExampleScenario.node[14].nic.mac1609_4 	TotalLostPackets 	0
scalar IntersectionExampleScenario.node[14].nic.mac1609_4 	DroppedPacketsInMac 	0
scalar IntersectionExampleScenario.node[14].nic.mac1609_4 	TooLittleTime 	0
scalar IntersectionExampleScenario.node[14].nic.mac1609_4 	TimesIntoBackoff 	0
scalar IntersectionExampleScenario.node[14].nic.mac1609_4 	SlotsBackoff 	0
scalar IntersectionExampleScenario.node[14].nic.mac1609_4 	NumInternalContention 	0
scalar IntersectionExampleScenario.node[14].nic.mac1609_4 	totalBusyTime 	0
scalar IntersectionExampleScenario.node[14].veinsmobility 	startTime 	34.75
scalar IntersectionExampleScenario.node[14].veinsmobility 	totalTime 	71.5
scalar IntersectionExampleScenario.node[14].veinsmobility 	stopTime 	106.5
scalar IntersectionExampleScenario.node[14].veinsmobility 	minSpeed 	0
scalar IntersectionExampleScenario.node[14].veinsmobility 	maxSpeed 	15.64999961853
scalar IntersectionExampleScenario.node[14].veinsmobility 	totalDistance 	551.53226470947
scalar IntersectionExampleScenario.node[14].veinsmobility 	totalCO2Emission 	162.727516116
scalar IntersectionExampleScenario.node[17].appl 	VehicleRemoved 	0
scalar IntersectionExampleScenario.node[17].appl 	ArrivedAtDest 	1
scalar IntersectionExampleScenario.node[17].appl 	IntersectionEnterTime 	39
scalar IntersectionExampleScenario.node[17].appl 	IntersectionExitTime 	92.755469172844
scalar IntersectionExampleScenario.node[17].appl 	NumberOfCollisions 	0
scalar IntersectionExampleScenario.node[17].nic.phy80211p 	busyTime 	0
scalar IntersectionExampleScenario.node[17].nic.mac1609_4 	ReceivedUnicastPackets 	0
scalar IntersectionExampleScenario.node[17].nic.mac1609_4 	ReceivedBroadcasts 	0
scalar IntersectionExampleScenario.node[17].nic.mac1609_4 	SentPackets 	0
scalar IntersectionExampleScenario.node[17].nic.mac1609_4 	SNIRLostPackets 	0
scalar IntersectionExampleScenario.node[17].nic.mac1609_4 	RXTXLostPackets 	0
scalar IntersectionExampleScenario.node[17].nic.mac1609_4 	TotalLostPackets 	0
scalar IntersectionExampleScenario.node[17].nic.mac1609_4 	DroppedPacketsInMac 	0
scalar IntersectionExampleScenario.node[17].nic.mac1609_4 	TooLittleTime 	0
scalar IntersectionExampleScenario.node[17].nic.mac1609_4 	TimesIntoBackoff 	0
scalar IntersectionExampleScenario.node[17].nic.mac1609_4 	SlotsBackoff 	0
scalar IntersectionExampleScenario.node[17].nic.mac1609_4 	NumInternalContention 	0
scalar IntersectionExampleScenario.node[17].nic.mac1609_4 	totalBusyTime 	0
scalar IntersectionExampleScenario.node[17].veinsmobility 	startTime 	39
scalar IntersectionExampleScenario.node[17].veinsmobility 	totalTime 	70
scalar IntersectionExampleScenario.node[17].veinsmobility 	stopTime 	109.25
scalar IntersectionExampleScenario.node[17].veinsmobility 	minSpeed 	0
scalar IntersectionExampleScenario.node[17].veinsmobility 	maxSpeed 	15.399901390076
scalar IntersectionExampleScenario.node[17].veinsmobility 	totalDistance 	531.54809570312
scalar IntersectionExampleScenario.node[17].veinsmobility 	totalCO2Emission 	159.29896379408
scalar IntersectionExampleScenario.node[15].appl 	VehicleRemoved 	0
scalar IntersectionExampleScenario.node[15].appl 	ArrivedAtDest 	1
scalar IntersectionExampleScenario.node[15].appl 	IntersectionEnterTime 	36
scalar IntersectionExampleScenario.node[15].appl 	IntersectionExitTime 	94.547166557051
scalar IntersectionExampleScenario.node[15].appl 	NumberOfCollisions 	0
scalar IntersectionExampleScenario.node[15].nic.phy80211p 	busyTime 	0
scalar IntersectionExampleScenario.node[15].nic.mac1609_4 	ReceivedUnicastPackets 	0
scalar IntersectionExampleScenario.node[15].nic.mac1609_4 	ReceivedBroadcasts 	0
scalar IntersectionExampleScenario.node[15].nic.mac1609_4 	SentPackets 	0
scalar IntersectionExampleScenario.node[15].nic.mac1609_4 	SNIRLostPackets 	0
scalar IntersectionExampleScenario.node[15].nic.mac1609_4 	RXTXLostPackets 	0
scalar IntersectionExampleScenario.node[15].nic.mac1609_4 	TotalLostPackets 	0
scalar IntersectionExampleScenario.node[15].nic.mac1609_4 	DroppedPacketsInMac 	0
scalar IntersectionExampleScenario.node[15].nic.mac1609_4 	TooLittleTime 	0
scalar IntersectionExampleScenario.node[15].nic.mac1609_4 	TimesIntoBackoff 	0
scalar IntersectionExampleScenario.node[15].nic.mac1609_4 	SlotsBackoff 	0
scalar IntersectionExampleScenario.node[15].nic.mac1609_4 	NumInternalContention 	0
scalar IntersectionExampleScenario.node[15].nic.mac1609_4 	totalBusyTime 	0
scalar IntersectionExampleScenario.node[15].veinsmobility 	startTime 	36
scalar IntersectionExampleScenario.node[15].veinsmobility 	totalTime 	74
scalar IntersectionExampleScenario.node[15].veinsmobility 	stopTime 	110.25
scalar IntersectionExampleScenario.node[15].veinsmobility 	minSpeed 	0
scalar IntersectionExampleScenario.node[15].veinsmobility 	maxSpeed 	16.384073257446
scalar IntersectionExampleScenario.node[15].veinsmobility 	totalDistance 	574.79654693604
scalar IntersectionExampleScenario.node[15].veinsmobility 	totalCO2Emission 	186.44810047497
scalar IntersectionExampleScenario.node[16].appl 	VehicleRemoved 	0
scalar IntersectionExampleScenario.node[16].appl 	ArrivedAtDest 	1
scalar IntersectionExampleScenario.node[16].appl 	IntersectionEnterTime 	37.5
scalar IntersectionExampleScenario.node[16].appl 	IntersectionExitTime 	96.620738689846
scalar IntersectionExampleScenario.node[16].appl 	NumberOfCollisions 	0
scalar IntersectionExampleScenario.node[16].nic.phy80211p 	busyTime 	0
scalar IntersectionExampleScenario.node[16].nic.mac1609_4 	ReceivedUnicastPackets 	0
scalar IntersectionExampleScenario.node[16].nic.mac1609_4 	ReceivedBroadcasts 	0
scalar IntersectionExampleScenario.node[16].nic.mac1609_4 	SentPackets 	0
scalar IntersectionExampleScenario.node[16].nic.mac1609_4 	SNIRLostPackets 	0
scalar IntersectionExampleScenario.node[16].nic.mac1609_4 	RXTXLostPackets 	0
scalar IntersectionExampleScenario.node[16].nic.mac1609_4 	TotalLostPackets 	0
scalar IntersectionExampleScenario.node[16].nic.mac1609_4 	DroppedPacketsInMac 	0
scalar IntersectionExampleScenario.node[16].nic.mac1609_4 	TooLittleTime 	0
scalar IntersectionExampleScenario.node[16].nic.mac1609_4 	TimesIntoBackoff 	0
scalar IntersectionExampleScenario.node[16].nic.mac1609_4 	SlotsBackoff 	0
scalar IntersectionExampleScenario.node[16].nic.mac1609_4 	NumInternalContention 	0
scalar IntersectionExampleScenario.node[16].nic.mac1609_4 	totalBusyTime 	0
scalar IntersectionExampleScenario.node[16].veinsmobility 	startTime 	37.5
scalar IntersectionExampleScenario.node[16].veinsmobility 	totalTime 	75
scalar IntersectionExampleScenario.node[16].veinsmobility 	stopTime 	112.75
scalar IntersectionExampleScenario.node[16].veinsmobility 	minSpeed 	0
scalar IntersectionExampleScenario.node[16].veinsmobility 	maxSpeed 	16.5
scalar IntersectionExampleScenario.node[16].veinsmobility 	totalDistance 	574.65321519601
scalar IntersectionExampleScenario.node[16].veinsmobility 	totalCO2Emission 	183.57769004062
scalar IntersectionExampleScenario.node[21].appl 	VehicleRemoved 	0
scalar IntersectionExampleScenario.node[21].appl 	ArrivedAtDest 	1
scalar IntersectionExampleScenario.node[21].appl 	IntersectionEnterTime 	49
scalar IntersectionExampleScenario.node[21].appl 	IntersectionExitTime 	98.812941846903
scalar IntersectionExampleScenario.node[21].appl 	NumberOfCollisions 	0
scalar IntersectionExampleScenario.node[21].nic.phy80211p 	busyTime 	0
scalar IntersectionExampleScenario.node[21].nic.mac1609_4 	ReceivedUnicastPackets 	0
scalar IntersectionExampleScenario.node[21].nic.mac1609_4 	ReceivedBroadcasts 	0
scalar IntersectionExampleScenario.node[21].nic.mac1609_4 	SentPackets 	0
scalar IntersectionExampleScenario.node[21].nic.mac1609_4 	SNIRLostPackets 	0
scalar IntersectionExampleScenario.node[21].nic.mac1609_4 	RXTXLostPackets 	0
scalar IntersectionExampleScenario.node[21].nic.mac1609_4 	TotalLostPackets 	0
scalar IntersectionExampleScenario.node[21].nic.mac1609_4 	DroppedPacketsInMac 	0
scalar IntersectionExampleScenario.node[21].nic.mac1609_4 	TooLittleTime 	0
scalar IntersectionExampleScenario.node[21].nic.mac1609_4 	TimesIntoBackoff 	0
scalar IntersectionExampleScenario.node[21].nic.mac1609_4 	SlotsBackoff 	0
scalar IntersectionExampleScenario.node[21].nic.mac1609_4 	NumInternalContention 	0
scalar IntersectionExampleScenario.node[21].nic.mac1609_4 	totalBusyTime 	0
scalar IntersectionExampleScenario.node[21].veinsmobility 	startTime 	49
scalar IntersectionExampleScenario.node[21].veinsmobility 	totalTime 	66.25
scalar IntersectionExampleScenario.node[21].veinsmobility 	stopTime 	115.5
scalar IntersectionExampleScenario.node[21].veinsmobility 	minSpeed 	0
scalar IntersectionExampleScenario.node[21].veinsmobility 	maxSpeed 	15.02499961853
scalar IntersectionExampleScenario.node[21].veinsmobility 	totalDistance 	551.01169586182
scalar IntersectionExampleScenario.node[21].veinsmobility 	totalCO2Emission 	155.8699592511
scalar IntersectionExampleScenario.node[25].appl 	VehicleRemoved 	0
scalar IntersectionExampleScenario.node[25].appl 	ArrivedAtDest 	1
scalar IntersectionExampleScenario.node[25].appl 	IntersectionEnterTime 	62.75
scalar IntersectionExampleScenario.node[25].appl 	IntersectionExitTime 	100.53002273839
scalar IntersectionExampleScenario.node[25].appl 	NumberOfCollisions 	0
scalar IntersectionExampleScenario.node[25].nic.phy80211p 	busyTime 	0
scalar IntersectionExampleScenario.node[25].nic.mac1609_4 	ReceivedUnicastPackets 	0
scalar IntersectionExampleScenario.node[25].nic.mac1609_4 	ReceivedBroadcasts 	0
scalar IntersectionExampleScenario.node[25].nic.mac1609_4 	SentPackets 	0
scalar IntersectionExampleScenario.node[25].nic.mac1609_4 	SNIRLostPackets 	0
scalar IntersectionExampleScenario.node[25].nic.mac1609_4 	RXTXLostPackets 	0
scalar IntersectionExampleScenario.node[25].nic.mac1609_4 	TotalLostPackets 	0
scalar IntersectionExampleScenario.node[25].nic.mac1609_4 	DroppedPacketsInMac 	0
scalar IntersectionExampleScenario.node[25].nic.mac1609_4 	TooLittleTime 	0
scalar IntersectionExampleScenario.node[25].nic.mac1609_4 	TimesIntoBackoff 	0
scalar IntersectionExampleScenario.node[25].nic.mac1609_4 	SlotsBackoff 	0
scalar IntersectionExampleScenario.node[25].nic.mac1609_4 	NumInternalContention 	0
scalar IntersectionExampleScenario.node[25].nic.mac1609_4 	totalBusyTime 	0
scalar IntersectionExampleScenario.node[25].veinsmobility 	startTime 	62.75
scalar IntersectionExampleScenario.node[25].veinsmobility 	totalTime 	53.75
scalar IntersectionExampleScenario.node[25].veinsmobility 	stopTime 	116.75
scalar IntersectionExampleScenario.node[25].veinsmobility 	minSpeed 	0
scalar IntersectionExampleScenario.node[25].veinsmobility 	maxSpeed 	16.295658111572
scalar IntersectionExampleScenario.node[25].veinsmobility 	totalDistance 	553.30094146729
scalar IntersectionExampleScenario.node[25].veinsmobility 	totalCO2Emission 	156.22264678602
scalar IntersectionExampleScenario.node[27].appl 	VehicleRemoved 	0
scalar IntersectionExampleScenario.node[27].appl 	ArrivedAtDest 	1
scalar IntersectionExampleScenario.node[27].appl 	IntersectionEnterTime 	69
scalar IntersectionExampleScenario.node[27].appl 	IntersectionExitTime 	103.07569564911
scalar IntersectionExampleScenario.node[27].appl 	NumberOfCollisions 	0
scalar IntersectionExampleScenario.node[27].nic.phy80211p 	busyTime 	0
scalar IntersectionExampleScenario.node[27].nic.mac1609_4 	ReceivedUnicastPackets 	0
scalar IntersectionExampleScenario.node[27].nic.mac1609_4 	ReceivedBroadcasts 	0
scalar IntersectionExampleScenario.node[27].nic.mac1609_4 	SentPackets 	0
scalar IntersectionExampleScenario.node[27].nic.mac1609_4 	SNIRLostPackets 	0
scalar IntersectionExampleScenario.node[27].nic.mac1609_4 	RXTXLostPackets 	0
scalar IntersectionExampleScenario.node[27].nic.mac1609_4 	TotalLostPackets 	0
scalar IntersectionExampleScenario.node[27].nic.mac1609_4 	DroppedPacketsInMac 	0
scalar IntersectionExampleScenario.node[27].nic.mac1609_4 	TooLittleTime 	0
scalar IntersectionExampleScenario.node[27].nic.mac1609_4 	TimesIntoBackoff 	0
scalar IntersectionExampleScenario.node[27].nic.mac1609_4 	SlotsBackoff 	0
scalar IntersectionExampleScenario.node[27].nic.mac1609_4 	NumInternalContention 	0
scalar IntersectionExampleScenario.node[27].nic.mac1609_4 	totalBusyTime 	0
scalar IntersectionExampleScenario.node[27].veinsmobility 	startTime 	69
scalar IntersectionExampleScenario.node[27].veinsmobility 	totalTime 	50.5
scalar IntersectionExampleScenario.node[27].veinsmobility 	stopTime 	119.75
scalar IntersectionExampleScenario.node[27].veinsmobility 	minSpeed 	1.7414891719818
scalar IntersectionExampleScenario.node[27].veinsmobility 	maxSpeed 	15.375
scalar IntersectionExampleScenario.node[27].veinsmobility 	totalDistance 	550.96482236807
scalar IntersectionExampleScenario.node[27].veinsmobility 	totalCO2Emission 	144.50434238477
scalar IntersectionExampleScenario.node[28].appl 	VehicleRemoved 	0
scalar IntersectionExampleScenario.node[28].appl 	ArrivedAtDest 	1
scalar IntersectionExampleScenario.node[28].appl 	IntersectionEnterTime 	69.25
scalar IntersectionExampleScenario.node[28].appl 	IntersectionExitTime 	105.3254344009
scalar IntersectionExampleScenario.node[28].appl 	NumberOfCollisions 	0
scalar IntersectionExampleScenario.node[28].nic.phy80211p 	busyTime 	0
scalar IntersectionExampleScenario.node[28].nic.mac1609_4 	ReceivedUnicastPackets 	0
scalar IntersectionExampleScenario.node[28].nic.mac1609_4 	ReceivedBroadcasts 	0
scalar IntersectionExampleScenario.node[28].nic.mac1609_4 	SentPackets 	0
scalar IntersectionExampleScenario.node[28].nic.mac1609_4 	SNIRLostPackets 	0
scalar IntersectionExampleScenario.node[28].nic.mac1609_4 	RXTXLostPackets 	0
scalar IntersectionExampleScenario.node[28].nic.mac1609_4 	TotalLostPackets 	0
scalar IntersectionExampleScenario.node[28].nic.mac1609_4 	DroppedPacketsInMac 	0
scalar IntersectionExampleScenario.node[28].nic.mac1609_4 	TooLittleTime 	0
scalar IntersectionExampleScenario.node[28].nic.mac1609_4 	TimesIntoBackoff 	0
scalar IntersectionExampleScenario.node[28].nic.mac1609_4 	SlotsBackoff 	0
scalar IntersectionExampleScenario.node[28].nic.mac1609_4 	NumInternalContention 	0
scalar IntersectionExampleScenario.node[28].nic.mac1609_4 	totalBusyTime 	0
scalar IntersectionExampleScenario.node[28].veinsmobility 	startTime 	69.25
scalar IntersectionExampleScenario.node[28].veinsmobility 	totalTime 	52.5
scalar IntersectionExampleScenario.node[28].veinsmobility 	stopTime 	122
scalar IntersectionExampleScenario.node[28].veinsmobility 	minSpeed 	1.9389789104462
scalar IntersectionExampleScenario.node[28].veinsmobility 	maxSpeed 	15.875
scalar IntersectionExampleScenario.node[28].veinsmobility 	totalDistance 	569.65502878351
scalar IntersectionExampleScenario.node[28].veinsmobility 	totalCO2Emission 	160.66144310954
scalar IntersectionExampleScenario.node[31].appl 	VehicleRemoved 	0
scalar IntersectionExampleScenario.node[31].appl 	ArrivedAtDest 	1
scalar IntersectionExampleScenario.node[31].appl 	IntersectionEnterTime 	75.5
scalar IntersectionExampleScenario.node[31].appl 	IntersectionExitTime 	106.80169722962
scalar IntersectionExampleScenario.node[31].appl 	NumberOfCollisions 	0
scalar IntersectionExampleScenario.node[31].nic.phy80211p 	busyTime 	0
scalar IntersectionExampleScenario.node[31].nic.mac1609_4 	ReceivedUnicastPackets 	0
scalar IntersectionExampleScenario.node[31].nic.mac1609_4 	ReceivedBroadcasts 	0
scalar IntersectionExampleScenario.node[31].nic.mac1609_4 	SentPackets 	0
scalar IntersectionExampleScenario.node[31].nic.mac1609_4 	SNIRLostPackets 	0
scalar IntersectionExampleScenario.node[31].nic.mac1609_4 	RXTXLostPackets 	0
scalar IntersectionExampleScenario.node[31].nic.mac1609_4 	TotalLostPackets 	0
scalar IntersectionExampleScenario.node[31].nic.mac1609_4 	DroppedPacketsInMac 	0
scalar IntersectionExampleScenario.node[31].nic.mac1609_4 	TooLittleTime 	0
scalar IntersectionExampleScenario.node[31].nic.mac1609_4 	TimesIntoBackoff 	0
scalar IntersectionExampleScenario.node[31].nic.mac1609_4 	SlotsBackoff 	0
scalar IntersectionExampleScenario.node[31].nic.mac1609_4 	NumInternalContention 	0
scalar IntersectionExampleScenario.node[31].nic.mac1609_4 	totalBusyTime 	0
scalar IntersectionExampleScenario.node[31].veinsmobility 	startTime 	75.5
scalar IntersectionExampleScenario.node[31].veinsmobility 	totalTime 	46.5
scalar IntersectionExampleScenario.node[31].veinsmobility 	stopTime 	122.25
scalar IntersectionExampleScenario.node[31].veinsmobility 	minSpeed 	3.6328580379486
scalar IntersectionExampleScenario.node[31].veinsmobility 	maxSpeed 	16.742832183838
scalar IntersectionExampleScenario.node[31].veinsmobility 	totalDistance 	553.95963016894
scalar IntersectionExampleScenario.node[31].veinsmobility 	totalCO2Emission 	153.09209513522
scalar IntersectionExampleScenario.node[37].appl 	VehicleRemoved 	0
scalar IntersectionExampleScenario.node[37].appl 	ArrivedAtDest 	1
scalar IntersectionExampleScenario.node[37].appl 	IntersectionEnterTime 	92.25
scalar IntersectionExampleScenario.node[37].appl 	IntersectionExitTime 	114.84627095039
scalar IntersectionExampleScenario.node[37].appl 	NumberOfCollisions 	0
scalar IntersectionExampleScenario.node[37].nic.phy80211p 	busyTime 	0
scalar IntersectionExampleScenario.node[37].nic.mac1609_4 	ReceivedUnicastPackets 	0
scalar IntersectionExampleScenario.node[37].nic.mac1609_4 	ReceivedBroadcasts 	0
scalar IntersectionExampleScenario.node[37].nic.mac1609_4 	SentPackets 	0
scalar IntersectionExampleScenario.node[37].nic.mac1609_4 	SNIRLostPackets 	0
scalar IntersectionExampleScenario.node[37].nic.mac1609_4 	RXTXLostPackets 	0
scalar IntersectionExampleScenario.node[37].nic.mac1609_4 	TotalLostPackets 	0
scalar IntersectionExampleScenario.node[37].nic.mac1609_4 	DroppedPacketsInMac 	0
scalar IntersectionExampleScenario.node[37].nic.mac1609_4 	TooLittleTime 	0
scalar IntersectionExampleScenario.node[37].nic.mac1609_4 	TimesIntoBackoff 	0
scalar IntersectionExampleScenario.node[37].nic.mac1609_4 	SlotsBackoff 	0
scalar IntersectionExampleScenario.node[37].nic.mac1609_4 	NumInternalContention 	0
scalar IntersectionExampleScenario.node[37].nic.mac1609_4 	totalBusyTime 	0
scalar IntersectionExampleScenario.node[37].veinsmobility 	startTime 	92.25
scalar IntersectionExampleScenario.node[37].veinsmobility 	totalTime 	38
scalar IntersectionExampleScenario.node[37].veinsmobility 	stopTime 	130.5
scalar IntersectionExampleScenario.node[37].veinsmobility 	minSpeed 	5.6500000953674
scalar IntersectionExampleScenario.node[37].veinsmobility 	maxSpeed 	16.625
scalar IntersectionExampleScenario.node[37].veinsmobility 	totalDistance 	548.98445208981
scalar IntersectionExampleScenario.node[37].veinsmobility 	totalCO2Emission 	127.86684213016
scalar IntersectionExampleScenario.node[39].appl 	VehicleRemoved 	0
scalar IntersectionExampleScenario.node[39].appl 	ArrivedAtDest 	1
scalar IntersectionExampleScenario.node[39].appl 	IntersectionEnterTime 	99.25
scalar IntersectionExampleScenario.node[39].appl 	IntersectionExitTime 	123.06431447089
scalar IntersectionExampleScenario.node[39].appl 	NumberOfCollisions 	0
scalar IntersectionExampleScenario.node[39].nic.phy80211p 	busyTime 	0
scalar IntersectionExampleScenario.node[39].nic.mac1609_4 	ReceivedUnicastPackets 	0
scalar IntersectionExampleScenario.node[39].nic.mac1609_4 	ReceivedBroadcasts 	0
scalar IntersectionExampleScenario.node[39].nic.mac1609_4 	SentPackets 	0
scalar IntersectionExampleScenario.node[39].nic.mac1609_4 	SNIRLostPackets 	0
scalar IntersectionExampleScenario.node[39].nic.mac1609_4 	RXTXLostPackets 	0
scalar IntersectionExampleScenario.node[39].nic.mac1609_4 	TotalLostPackets 	0
scalar IntersectionExampleScenario.node[39].nic.mac1609_4 	DroppedPacketsInMac 	0
scalar IntersectionExampleScenario.node[39].nic.mac1609_4 	TooLittleTime 	0
scalar IntersectionExampleScenario.node[39].nic.mac1609_4 	TimesIntoBackoff 	0
scalar IntersectionExampleScenario.node[39].nic.mac1609_4 	SlotsBackoff 	0
scalar IntersectionExampleScenario.node[39].nic.mac1609_4 	NumInternalContention 	0
scalar IntersectionExampleScenario.node[39].nic.mac1609_4 	totalBusyTime 	0
scalar IntersectionExampleScenario.node[39].veinsmobility 	startTime 	99.25
scalar IntersectionExampleScenario.node[39].veinsmobility 	totalTime 	40.75
scalar IntersectionExampleScenario.node[39].veinsmobility 	stopTime 	140.25
scalar IntersectionExampleScenario.node[39].veinsmobility 	minSpeed 	5.6500000953674
scalar IntersectionExampleScenario.node[39].veinsmobility 	maxSpeed 	15.25
scalar IntersectionExampleScenario.node[39].veinsmobility 	totalDistance 	546.90527363742
scalar IntersectionExampleScenario.node[39].veinsmobility 	totalCO2Emission 	125.37208172338
scalar IntersectionExampleScenario.node[40].appl 	VehicleRemoved 	0
scalar IntersectionExampleScenario.node[40].appl 	ArrivedAtDest 	1
scalar IntersectionExampleScenario.node[40].appl 	IntersectionEnterTime 	100.75
scalar IntersectionExampleScenario.node[40].appl 	IntersectionExitTime 	125.83608186978
scalar IntersectionExampleScenario.node[40].appl 	NumberOfCollisions 	0
scalar IntersectionExampleScenario.node[40].nic.phy80211p 	busyTime 	0
scalar IntersectionExampleScenario.node[40].nic.mac1609_4 	ReceivedUnicastPackets 	0
scalar IntersectionExampleScenario.node[40].nic.mac1609_4 	ReceivedBroadcasts 	0
scalar IntersectionExampleScenario.node[40].nic.mac1609_4 	SentPackets 	0
scalar IntersectionExampleScenario.node[40].nic.mac1609_4 	SNIRLostPackets 	0
scalar IntersectionExampleScenario.node[40].nic.mac1609_4 	RXTXLostPackets 	0
scalar IntersectionExampleScenario.node[40].nic.mac1609_4 	TotalLostPackets 	0
scalar IntersectionExampleScenario.node[40].nic.mac1609_4 	DroppedPacketsInMac 	0
scalar IntersectionExampleScenario.node[40].nic.mac1609_4 	TooLittleTime 	0
scalar IntersectionExampleScenario.node[40].nic.mac1609_4 	TimesIntoBackoff 	0
scalar IntersectionExampleScenario.node[40].nic.mac1609_4 	SlotsBackoff 	0
scalar IntersectionExampleScenario.node[40].nic.mac1609_4 	NumInternalContention 	0
scalar IntersectionExampleScenario.node[40].nic.mac1609_4 	totalBusyTime 	0
scalar IntersectionExampleScenario.node[40].veinsmobility 	startTime 	100.75
scalar IntersectionExampleScenario.node[40].veinsmobility 	totalTime 	41.25
scalar IntersectionExampleScenario.node[40].veinsmobility 	stopTime 	142.25
scalar IntersectionExampleScenario.node[40].veinsmobility 	minSpeed 	5.6500000953674
scalar IntersectionExampleScenario.node[40].veinsmobility 	maxSpeed 	15.803021430969
scalar IntersectionExampleScenario.node[40].veinsmobility 	totalDistance 	564.07618941819
scalar IntersectionExampleScenario.node[40].veinsmobility 	totalCO2Emission 	132.50324573009
scalar IntersectionExampleScenario.node[11].appl 	VehicleRemoved 	0
scalar IntersectionExampleScenario.node[11].appl 	ArrivedAtDest 	1
scalar IntersectionExampleScenario.node[11].appl 	IntersectionEnterTime 	26.75
scalar IntersectionExampleScenario.node[11].appl 	IntersectionExitTime 	128.500052944
scalar IntersectionExampleScenario.node[11].appl 	NumberOfCollisions 	0
scalar IntersectionExampleScenario.node[11].nic.phy80211p 	busyTime 	0
scalar IntersectionExampleScenario.node[11].nic.mac1609_4 	ReceivedUnicastPackets 	0
scalar IntersectionExampleScenario.node[11].nic.mac1609_4 	ReceivedBroadcasts 	0
scalar IntersectionExampleScenario.node[11].nic.mac1609_4 	SentPackets 	0
scalar IntersectionExampleScenario.node[11].nic.mac1609_4 	SNIRLostPackets 	0
scalar IntersectionExampleScenario.node[11].nic.mac1609_4 	RXTXLostPackets 	0
scalar IntersectionExampleScenario.node[11].nic.mac1609_4 	TotalLostPackets 	0
scalar IntersectionExampleScenario.node[11].nic.mac1609_4 	DroppedPacketsInMac 	0
scalar IntersectionExampleScenario.node[11].nic.mac1609_4 	TooLittleTime 	0
scalar IntersectionExampleScenario.node[11].nic.mac1609_4 	TimesIntoBackoff 	0
scalar IntersectionExampleScenario.node[11].nic.mac1609_4 	SlotsBackoff 	0
scalar IntersectionExampleScenario.node[11].nic.mac1609_4 	NumInternalContention 	0
scalar IntersectionExampleScenario.node[11].nic.mac1609_4 	totalBusyTime 	0
scalar IntersectionExampleScenario.node[11].veinsmobility 	startTime 	26.75
scalar IntersectionExampleScenario.node[11].veinsmobility 	totalTime 	118.5
scalar IntersectionExampleScenario.node[11].veinsmobility 	stopTime 	145.5
scalar IntersectionExampleScenario.node[11].veinsmobility 	minSpeed 	0
scalar IntersectionExampleScenario.node[11].veinsmobility 	maxSpeed 	15.875
scalar IntersectionExampleScenario.node[11].veinsmobility 	totalDistance 	567.73252011687
scalar IntersectionExampleScenario.node[11].veinsmobility 	totalCO2Emission 	210.88887923578
scalar IntersectionExampleScenario.node[13].appl 	VehicleRemoved 	0
scalar IntersectionExampleScenario.node[13].appl 	ArrivedAtDest 	1
scalar IntersectionExampleScenario.node[13].appl 	IntersectionEnterTime 	32.25
scalar IntersectionExampleScenario.node[13].appl 	IntersectionExitTime 	130.2737227504
scalar IntersectionExampleScenario.node[13].appl 	NumberOfCollisions 	0
scalar IntersectionExampleScenario.node[13].nic.phy80211p 	busyTime 	0
scalar IntersectionExampleScenario.node[13].nic.mac1609_4 	ReceivedUnicastPackets 	0
scalar IntersectionExampleScenario.node[13].nic.mac1609_4 	ReceivedBroadcasts 	0
scalar IntersectionExampleScenario.node[13].nic.mac1609_4 	SentPackets 	0
scalar IntersectionExampleScenario.node[13].nic.mac1609_4 	SNIRLostPackets 	0
scalar IntersectionExampleScenario.node[13].nic.mac1609_4 	RXTXLostPackets 	0
scalar IntersectionExampleScenario.node[13].nic.mac1609_4 	TotalLostPackets 	0
scalar IntersectionExampleScenario.node[13].nic.mac1609_4 	DroppedPacketsInMac 	0
scalar IntersectionExampleScenario.node[13].nic.mac1609_4 	TooLittleTime 	0
scalar IntersectionExampleScenario.node[13].nic.mac1609_4 	TimesIntoBackoff 	0
scalar IntersectionExampleScenario.node[13].nic.mac1609_4 	SlotsBackoff 	0
scalar IntersectionExampleScenario.node[13].nic.mac1609_4 	NumInternalContention 	0
scalar IntersectionExampleScenario.node[13].nic.mac1609_4 	totalBusyTime 	0
scalar IntersectionExampleScenario.node[13].veinsmobility 	startTime 	32.25
scalar IntersectionExampleScenario.node[13].veinsmobility 	totalTime 	114
scalar IntersectionExampleScenario.node[13].veinsmobility 	stopTime 	146.5
scalar IntersectionExampleScenario.node[13].veinsmobility 	minSpeed 	0
scalar IntersectionExampleScenario.node[13].veinsmobility 	maxSpeed 	16
scalar IntersectionExampleScenario.node[13].veinsmobility 	totalDistance 	555.79908435411
scalar IntersectionExampleScenario.node[13].veinsmobility 	totalCO2Emission 	207.80667002869
scalar IntersectionExampleScenario.node[12].appl 	VehicleRemoved 	0
scalar IntersectionExampleScenario.node[12].appl 	ArrivedAtDest 	1
scalar IntersectionExampleScenario.node[12].appl 	IntersectionEnterTime 	29
scalar IntersectionExampleScenario.node[12].appl 	IntersectionExitTime 	131.35980307485
scalar IntersectionExampleScenario.node[12].appl 	NumberOfCollisions 	0
scalar IntersectionExampleScenario.node[12].nic.phy80211p 	busyTime 	0
scalar IntersectionExampleScenario.node[12].nic.mac1609_4 	ReceivedUnicastPackets 	0
scalar IntersectionExampleScenario.node[12].nic.mac1609_4 	ReceivedBroadcasts 	0
scalar IntersectionExampleScenario.node[12].nic.mac1609_4 	SentPackets 	0
scalar IntersectionExampleScenario.node[12].nic.mac1609_4 	SNIRLostPackets 	0
scalar IntersectionExampleScenario.node[12].nic.mac1609_4 	RXTXLostPackets 	0
scalar IntersectionExampleScenario.node[12].nic.mac1609_4 	TotalLostPackets 	0
scalar IntersectionExampleScenario.node[12].nic.mac1609_4 	DroppedPacketsInMac 	0
scalar IntersectionExampleScenario.node[12].nic.mac1609_4 	TooLittleTime 	0
scalar IntersectionExampleScenario.node[12].nic.mac1609_4 	TimesIntoBackoff 	0
scalar IntersectionExampleScenario.node[12].nic.mac1609_4 	SlotsBackoff 	0
scalar IntersectionExampleScenario.node[12].nic.mac1609_4 	NumInternalContention 	0
scalar IntersectionExampleScenario.node[12].nic.mac1609_4 	totalBusyTime 	0
scalar IntersectionExampleScenario.node[12].veinsmobility 	startTime 	29
scalar IntersectionExampleScenario.node[12].veinsmobility 	totalTime 	118.25
scalar IntersectionExampleScenario.node[12].veinsmobility 	stopTime 	147.5
scalar IntersectionExampleScenario.node[12].veinsmobility 	minSpeed 	0
scalar IntersectionExampleScenario.node[12].veinsmobility 	maxSpeed 	15.938354492188
scalar IntersectionExampleScenario.node[12].veinsmobility 	totalDistance 	549.62365998546
scalar IntersectionExampleScenario.node[12].veinsmobility 	totalCO2Emission 	212.5499221811
scalar IntersectionExampleScenario.node[22].appl 	VehicleRemoved 	0
scalar IntersectionExampleScenario.node[22].appl 	ArrivedAtDest 	1
scalar IntersectionExampleScenario.node[22].appl 	IntersectionEnterTime 	54.5
scalar IntersectionExampleScenario.node[22].appl 	IntersectionExitTime 	132.34472117131
scalar IntersectionExampleScenario.node[22].appl 	NumberOfCollisions 	0
scalar IntersectionExampleScenario.node[22].nic.phy80211p 	busyTime 	0
scalar IntersectionExampleScenario.node[22].nic.mac1609_4 	ReceivedUnicastPackets 	0
scalar IntersectionExampleScenario.node[22].nic.mac1609_4 	ReceivedBroadcasts 	0
scalar IntersectionExampleScenario.node[22].nic.mac1609_4 	SentPackets 	0
scalar IntersectionExampleScenario.node[22].nic.mac1609_4 	SNIRLostPackets 	0
scalar IntersectionExampleScenario.node[22].nic.mac1609_4 	RXTXLostPackets 	0
scalar IntersectionExampleScenario.node[22].nic.mac1609_4 	TotalLostPackets 	0
scalar IntersectionExampleScenario.node[22].nic.mac1609_4 	DroppedPacketsInMac 	0
scalar IntersectionExampleScenario.node[22].nic.mac1609_4 	TooLittleTime 	0
scalar IntersectionExampleScenario.node[22].nic.mac1609_4 	TimesIntoBackoff 	0
scalar IntersectionExampleScenario.node[22].nic.mac1609_4 	SlotsBackoff 	0
scalar IntersectionExampleScenario.node[22].nic.mac1609_4 	NumInternalContention 	0
scalar IntersectionExampleScenario.node[22].nic.mac1609_4 	totalBusyTime 	0
scalar IntersectionExampleScenario.node[22].veinsmobility 	startTime 	54.5
scalar IntersectionExampleScenario.node[22].veinsmobility 	totalTime 	94.5
scalar IntersectionExampleScenario.node[22].veinsmobility 	stopTime 	149.25
scalar IntersectionExampleScenario.node[22].veinsmobility 	minSpeed 	0
scalar IntersectionExampleScenario.node[22].veinsmobility 	maxSpeed 	15.02499961853
scalar IntersectionExampleScenario.node[22].veinsmobility 	totalDistance 	553.80099487305
scalar IntersectionExampleScenario.node[22].veinsmobility 	totalCO2Emission 	178.75865995976
scalar IntersectionExampleScenario.node[19].appl 	VehicleRemoved 	0
scalar IntersectionExampleScenario.node[19].appl 	ArrivedAtDest 	1
scalar IntersectionExampleScenario.node[19].appl 	IntersectionEnterTime 	42.75
scalar IntersectionExampleScenario.node[19].appl 	IntersectionExitTime 	133.54840820702
scalar IntersectionExampleScenario.node[19].appl 	NumberOfCollisions 	0
scalar IntersectionExampleScenario.node[19].nic.phy80211p 	busyTime 	0
scalar IntersectionExampleScenario.node[19].nic.mac1609_4 	ReceivedUnicastPackets 	0
scalar IntersectionExampleScenario.node[19].nic.mac1609_4 	ReceivedBroadcasts 	0
scalar IntersectionExampleScenario.node[19].nic.mac1609_4 	SentPackets 	0
scalar IntersectionExampleScenario.node[19].nic.mac1609_4 	SNIRLostPackets 	0
scalar IntersectionExampleScenario.node[19].nic.mac1609_4 	RXTXLostPackets 	0
scalar IntersectionExampleScenario.node[19].nic.mac1609_4 	TotalLostPackets 	0
scalar IntersectionExampleScenario.node[19].nic.mac1609_4 	DroppedPacketsInMac 	0
scalar IntersectionExampleScenario.node[19].nic.mac1609_4 	TooLittleTime 	0
scalar IntersectionExampleScenario.node[19].nic.mac1609_4 	TimesIntoBackoff 	0
scalar IntersectionExampleScenario.node[19].nic.mac1609_4 	SlotsBackoff 	0
scalar IntersectionExampleScenario.node[19].nic.mac1609_4 	NumInternalContention 	0
scalar IntersectionExampleScenario.node[19].nic.mac1609_4 	totalBusyTime 	0
scalar IntersectionExampleScenario.node[19].veinsmobility 	startTime 	42.75
scalar IntersectionExampleScenario.node[19].veinsmobility 	totalTime 	106.25
scalar IntersectionExampleScenario.node[19].veinsmobility 	stopTime 	149.25
scalar IntersectionExampleScenario.node[19].veinsmobility 	minSpeed 	0
scalar IntersectionExampleScenario.node[19].veinsmobility 	maxSpeed 	16.27499961853
scalar IntersectionExampleScenario.node[19].veinsmobility 	totalDistance 	550.30714514452
scalar IntersectionExampleScenario.node[19].veinsmobility 	totalCO2Emission 	203.24183244688
scalar IntersectionExampleScenario.node[23].appl 	VehicleRemoved 	0
scalar IntersectionExampleScenario.node[23].appl 	ArrivedAtDest 	1
scalar IntersectionExampleScenario.node[23].appl 	IntersectionEnterTime 	56
scalar IntersectionExampleScenario.node[23].appl 	IntersectionExitTime 	135.55444989598
scalar IntersectionExampleScenario.node[23].appl 	NumberOfCollisions 	0
scalar IntersectionExampleScenario.node[23].nic.phy80211p 	busyTime 	0
scalar IntersectionExampleScenario.node[23].nic.mac1609_4 	ReceivedUnicastPackets 	0
scalar IntersectionExampleScenario.node[23].nic.mac1609_4 	ReceivedBroadcasts 	0
scalar IntersectionExampleScenario.node[23].nic.mac1609_4 	SentPackets 	0
scalar IntersectionExampleScenario.node[23].nic.mac1609_4 	SNIRLostPackets 	0
scalar IntersectionExampleScenario.node[23].nic.mac1609_4 	RXTXLostPackets 	0
scalar IntersectionExampleScenario.node[23].nic.mac1609_4 	TotalLostPackets 	0
scalar IntersectionExampleScenario.node[23].nic.mac1609_4 	DroppedPacketsInMac 	0
scalar IntersectionExampleScenario.node[23].nic.mac1609_4 	TooLittleTime 	0
scalar IntersectionExampleScenario.node[23].nic.mac1609_4 	TimesIntoBackoff 	0
scalar IntersectionExampleScenario.node[23].nic.mac1609_4 	SlotsBackoff 	0
scalar IntersectionExampleScenario.node[23].nic.mac1609_4 	NumInternalContention 	0
scalar IntersectionExampleScenario.node[23].nic.mac1609_4 	totalBusyTime 	0
scalar IntersectionExampleScenario.node[23].veinsmobility 	startTime 	56
scalar IntersectionExampleScenario.node[23].veinsmobility 	totalTime 	96
scalar IntersectionExampleScenario.node[23].veinsmobility 	stopTime 	152.25
scalar IntersectionExampleScenario.node[23].veinsmobility 	minSpeed 	0
scalar IntersectionExampleScenario.node[23].veinsmobility 	maxSpeed 	15.02499961853
scalar IntersectionExampleScenario.node[23].veinsmobility 	totalDistance 	553.89859771729
scalar IntersectionExampleScenario.node[23].veinsmobility 	totalCO2Emission 	181.62052526367
scalar IntersectionExampleScenario.node[30].appl 	VehicleRemoved 	0
scalar IntersectionExampleScenario.node[30].appl 	ArrivedAtDest 	1
scalar IntersectionExampleScenario.node[30].appl 	IntersectionEnterTime 	74
scalar IntersectionExampleScenario.node[30].appl 	IntersectionExitTime 	134.75527912035
scalar IntersectionExampleScenario.node[30].appl 	NumberOfCollisions 	0
scalar IntersectionExampleScenario.node[30].nic.phy80211p 	busyTime 	0
scalar IntersectionExampleScenario.node[30].nic.mac1609_4 	ReceivedUnicastPackets 	0
scalar IntersectionExampleScenario.node[30].nic.mac1609_4 	ReceivedBroadcasts 	0
scalar IntersectionExampleScenario.node[30].nic.mac1609_4 	SentPackets 	0
scalar IntersectionExampleScenario.node[30].nic.mac1609_4 	SNIRLostPackets 	0
scalar IntersectionExampleScenario.node[30].nic.mac1609_4 	RXTXLostPackets 	0
scalar IntersectionExampleScenario.node[30].nic.mac1609_4 	TotalLostPackets 	0
scalar IntersectionExampleScenario.node[30].nic.mac1609_4 	DroppedPacketsInMac 	0
scalar IntersectionExampleScenario.node[30].nic.mac1609_4 	TooLittleTime 	0
scalar IntersectionExampleScenario.node[30].nic.mac1609_4 	TimesIntoBackoff 	0
scalar IntersectionExampleScenario.node[30].nic.mac1609_4 	SlotsBackoff 	0
scalar IntersectionExampleScenario.node[30].nic.mac1609_4 	NumInternalContention 	0
scalar IntersectionExampleScenario.node[30].nic.mac1609_4 	totalBusyTime 	0
scalar IntersectionExampleScenario.node[30].veinsmobility 	startTime 	74
scalar IntersectionExampleScenario.node[30].veinsmobility 	totalTime 	78
scalar IntersectionExampleScenario.node[30].veinsmobility 	stopTime 	152.25
scalar IntersectionExampleScenario.node[30].veinsmobility 	minSpeed 	0
scalar IntersectionExampleScenario.node[30].veinsmobility 	maxSpeed 	14.75
scalar IntersectionExampleScenario.node[30].veinsmobility 	totalDistance 	551.61483826738
scalar IntersectionExampleScenario.node[30].veinsmobility 	totalCO2Emission 	161.9411659666
scalar IntersectionExampleScenario.node[33].appl 	VehicleRemoved 	0
scalar IntersectionExampleScenario.node[33].appl 	ArrivedAtDest 	1
scalar IntersectionExampleScenario.node[33].appl 	IntersectionEnterTime 	82.25
scalar IntersectionExampleScenario.node[33].appl 	IntersectionExitTime 	136.76592565616
scalar IntersectionExampleScenario.node[33].appl 	NumberOfCollisions 	0
scalar IntersectionExampleScenario.node[33].nic.phy80211p 	busyTime 	0
scalar IntersectionExampleScenario.node[33].nic.mac1609_4 	ReceivedUnicastPackets 	0
scalar IntersectionExampleScenario.node[33].nic.mac1609_4 	ReceivedBroadcasts 	0
scalar IntersectionExampleScenario.node[33].nic.mac1609_4 	SentPackets 	0
scalar IntersectionExampleScenario.node[33].nic.mac1609_4 	SNIRLostPackets 	0
scalar IntersectionExampleScenario.node[33].nic.mac1609_4 	RXTXLostPackets 	0
scalar IntersectionExampleScenario.node[33].nic.mac1609_4 	TotalLostPackets 	0
scalar IntersectionExampleScenario.node[33].nic.mac1609_4 	DroppedPacketsInMac 	0
scalar IntersectionExampleScenario.node[33].nic.mac1609_4 	TooLittleTime 	0
scalar IntersectionExampleScenario.node[33].nic.mac1609_4 	TimesIntoBackoff 	0
scalar IntersectionExampleScenario.node[33].nic.mac1609_4 	SlotsBackoff 	0
scalar IntersectionExampleScenario.node[33].nic.mac1609_4 	NumInternalContention 	0
scalar IntersectionExampleScenario.node[33].nic.mac1609_4 	totalBusyTime 	0
scalar IntersectionExampleScenario.node[33].veinsmobility 	startTime 	82.25
scalar IntersectionExampleScenario.node[33].veinsmobility 	totalTime 	71
scalar IntersectionExampleScenario.node[33].veinsmobility 	stopTime 	153.5
scalar IntersectionExampleScenario.node[33].veinsmobility 	minSpeed 	0
scalar IntersectionExampleScenario.node[33].veinsmobility 	maxSpeed 	15.875
scalar IntersectionExampleScenario.node[33].veinsmobility 	totalDistance 	545.94911449164
scalar IntersectionExampleScenario.node[33].veinsmobility 	totalCO2Emission 	165.05955279006
scalar IntersectionExampleScenario.node[24].appl 	VehicleRemoved 	0
scalar IntersectionExampleScenario.node[24].appl 	ArrivedAtDest 	1
scalar IntersectionExampleScenario.node[24].appl 	IntersectionEnterTime 	62
scalar IntersectionExampleScenario.node[24].appl 	IntersectionExitTime 	138.10978323145
scalar IntersectionExampleScenario.node[24].appl 	NumberOfCollisions 	0
scalar IntersectionExampleScenario.node[24].nic.phy80211p 	busyTime 	0
scalar IntersectionExampleScenario.node[24].nic.mac1609_4 	ReceivedUnicastPackets 	0
scalar IntersectionExampleScenario.node[24].nic.mac1609_4 	ReceivedBroadcasts 	0
scalar IntersectionExampleScenario.node[24].nic.mac1609_4 	SentPackets 	0
scalar IntersectionExampleScenario.node[24].nic.mac1609_4 	SNIRLostPackets 	0
scalar IntersectionExampleScenario.node[24].nic.mac1609_4 	RXTXLostPackets 	0
scalar IntersectionExampleScenario.node[24].nic.mac1609_4 	TotalLostPackets 	0
scalar IntersectionExampleScenario.node[24].nic.mac1609_4 	DroppedPacketsInMac 	0
scalar IntersectionExampleScenario.node[24].nic.mac1609_4 	TooLittleTime 	0
scalar IntersectionExampleScenario.node[24].nic.mac1609_4 	TimesIntoBackoff 	0
scalar IntersectionExampleScenario.node[24].nic.mac1609_4 	SlotsBackoff 	0
scalar IntersectionExampleScenario.node[24].nic.mac1609_4 	NumInternalContention 	0
scalar IntersectionExampleScenario.node[24].nic.mac1609_4 	totalBusyTime 	0
scalar IntersectionExampleScenario.node[24].veinsmobility 	startTime 	62
scalar IntersectionExampleScenario.node[24].veinsmobility 	totalTime 	92.25
scalar IntersectionExampleScenario.node[24].veinsmobility 	stopTime 	154.5
scalar IntersectionExampleScenario.node[24].veinsmobility 	minSpeed 	0
scalar IntersectionExampleScenario.node[24].veinsmobility 	maxSpeed 	15.02499961853
scalar IntersectionExampleScenario.node[24].veinsmobility 	totalDistance 	551.637550354
scalar IntersectionExampleScenario.node[24].veinsmobility 	totalCO2Emission 	178.39686464167
scalar IntersectionExampleScenario.node[26].appl 	VehicleRemoved 	0
scalar IntersectionExampleScenario.node[26].appl 	ArrivedAtDest 	1
scalar IntersectionExampleScenario.node[26].appl 	IntersectionEnterTime 	63.75
scalar IntersectionExampleScenario.node[26].appl 	IntersectionExitTime 	140.06614437726
scalar IntersectionExampleScenario.node[26].appl 	NumberOfCollisions 	0
scalar IntersectionExampleScenario.node[26].nic.phy80211p 	busyTime 	0
scalar IntersectionExampleScenario.node[26].nic.mac1609_4 	ReceivedUnicastPackets 	0
scalar IntersectionExampleScenario.node[26].nic.mac1609_4 	ReceivedBroadcasts 	0
scalar IntersectionExampleScenario.node[26].nic.mac1609_4 	SentPackets 	0
scalar IntersectionExampleScenario.node[26].nic.mac1609_4 	SNIRLostPackets 	0
scalar IntersectionExampleScenario.node[26].nic.mac1609_4 	RXTXLostPackets 	0
scalar IntersectionExampleScenario.node[26].nic.mac1609_4 	TotalLostPackets 	0
scalar IntersectionExampleScenario.node[26].nic.mac1609_4 	DroppedPacketsInMac 	0
scalar IntersectionExampleScenario.node[26].nic.mac1609_4 	TooLittleTime 	0
scalar IntersectionExampleScenario.node[26].nic.mac1609_4 	TimesIntoBackoff 	0
scalar IntersectionExampleScenario.node[26].nic.mac1609_4 	SlotsBackoff 	0
scalar IntersectionExampleScenario.node[26].nic.mac1609_4 	NumInternalContention 	0
scalar IntersectionExampleScenario.node[26].nic.mac1609_4 	totalBusyTime 	0
scalar IntersectionExampleScenario.node[26].veinsmobility 	startTime 	63.75
scalar IntersectionExampleScenario.node[26].veinsmobility 	totalTime 	92
scalar IntersectionExampleScenario.node[26].veinsmobility 	stopTime 	156
scalar IntersectionExampleScenario.node[26].veinsmobility 	minSpeed 	0
scalar IntersectionExampleScenario.node[26].veinsmobility 	maxSpeed 	15.719190597534
scalar IntersectionExampleScenario.node[26].veinsmobility 	totalDistance 	573.75093841553
scalar IntersectionExampleScenario.node[26].veinsmobility 	totalCO2Emission 	189.50909714562
scalar IntersectionExampleScenario.node[36].appl 	VehicleRemoved 	0
scalar IntersectionExampleScenario.node[36].appl 	ArrivedAtDest 	1
scalar IntersectionExampleScenario.node[36].appl 	IntersectionEnterTime 	90.5
scalar IntersectionExampleScenario.node[36].appl 	IntersectionExitTime 	139.35052076599
scalar IntersectionExampleScenario.node[36].appl 	NumberOfCollisions 	0
scalar IntersectionExampleScenario.node[36].nic.phy80211p 	busyTime 	0
scalar IntersectionExampleScenario.node[36].nic.mac1609_4 	ReceivedUnicastPackets 	0
scalar IntersectionExampleScenario.node[36].nic.mac1609_4 	ReceivedBroadcasts 	0
scalar IntersectionExampleScenario.node[36].nic.mac1609_4 	SentPackets 	0
scalar IntersectionExampleScenario.node[36].nic.mac1609_4 	SNIRLostPackets 	0
scalar IntersectionExampleScenario.node[36].nic.mac1609_4 	RXTXLostPackets 	0
scalar IntersectionExampleScenario.node[36].nic.mac1609_4 	TotalLostPackets 	0
scalar IntersectionExampleScenario.node[36].nic.mac1609_4 	DroppedPacketsInMac 	0
scalar IntersectionExampleScenario.node[36].nic.mac1609_4 	TooLittleTime 	0
scalar IntersectionExampleScenario.node[36].nic.mac1609_4 	TimesIntoBackoff 	0
scalar IntersectionExampleScenario.node[36].nic.mac1609_4 	SlotsBackoff 	0
scalar IntersectionExampleScenario.node[36].nic.mac1609_4 	NumInternalContention 	0
scalar IntersectionExampleScenario.node[36].nic.mac1609_4 	totalBusyTime 	0
scalar IntersectionExampleScenario.node[36].veinsmobility 	startTime 	90.5
scalar IntersectionExampleScenario.node[36].veinsmobility 	totalTime 	65.5
scalar IntersectionExampleScenario.node[36].veinsmobility 	stopTime 	156.25
scalar IntersectionExampleScenario.node[36].veinsmobility 	minSpeed 	0
scalar IntersectionExampleScenario.node[36].veinsmobility 	maxSpeed 	15.875
scalar IntersectionExampleScenario.node[36].veinsmobility 	totalDistance 	546.48281092776
scalar IntersectionExampleScenario.node[36].veinsmobility 	totalCO2Emission 	153.76325519865
scalar IntersectionExampleScenario.node[41].appl 	VehicleRemoved 	0
scalar IntersectionExampleScenario.node[41].appl 	ArrivedAtDest 	1
scalar IntersectionExampleScenario.node[41].appl 	IntersectionEnterTime 	105.75
scalar IntersectionExampleScenario.node[41].appl 	IntersectionExitTime 	141.35557718528
scalar IntersectionExampleScenario.node[41].appl 	NumberOfCollisions 	0
scalar IntersectionExampleScenario.node[41].nic.phy80211p 	busyTime 	0
scalar IntersectionExampleScenario.node[41].nic.mac1609_4 	ReceivedUnicastPackets 	0
scalar IntersectionExampleScenario.node[41].nic.mac1609_4 	ReceivedBroadcasts 	0
scalar IntersectionExampleScenario.node[41].nic.mac1609_4 	SentPackets 	0
scalar IntersectionExampleScenario.node[41].nic.mac1609_4 	SNIRLostPackets 	0
scalar IntersectionExampleScenario.node[41].nic.mac1609_4 	RXTXLostPackets 	0
scalar IntersectionExampleScenario.node[41].nic.mac1609_4 	TotalLostPackets 	0
scalar IntersectionExampleScenario.node[41].nic.mac1609_4 	DroppedPacketsInMac 	0
scalar IntersectionExampleScenario.node[41].nic.mac1609_4 	TooLittleTime 	0
scalar IntersectionExampleScenario.node[41].nic.mac1609_4 	TimesIntoBackoff 	0
scalar IntersectionExampleScenario.node[41].nic.mac1609_4 	SlotsBackoff 	0
scalar IntersectionExampleScenario.node[41].nic.mac1609_4 	NumInternalContention 	0
scalar IntersectionExampleScenario.node[41].nic.mac1609_4 	totalBusyTime 	0
scalar IntersectionExampleScenario.node[41].veinsmobility 	startTime 	105.75
scalar IntersectionExampleScenario.node[41].veinsmobility 	totalTime 	51.25
scalar IntersectionExampleScenario.node[41].veinsmobility 	stopTime 	157.25
scalar IntersectionExampleScenario.node[41].veinsmobility 	minSpeed 	1.6683614253998
scalar IntersectionExampleScenario.node[41].veinsmobility 	maxSpeed 	16.89999961853
scalar IntersectionExampleScenario.node[41].veinsmobility 	totalDistance 	543.75581614927
scalar IntersectionExampleScenario.node[41].veinsmobility 	totalCO2Emission 	150.08298505435
scalar IntersectionExampleScenario.node[34].appl 	VehicleRemoved 	0
scalar IntersectionExampleScenario.node[34].appl 	ArrivedAtDest 	1
scalar IntersectionExampleScenario.node[34].appl 	IntersectionEnterTime 	88
scalar IntersectionExampleScenario.node[34].appl 	IntersectionExitTime 	142.28902979931
scalar IntersectionExampleScenario.node[34].appl 	NumberOfCollisions 	0
scalar IntersectionExampleScenario.node[34].nic.phy80211p 	busyTime 	0
scalar IntersectionExampleScenario.node[34].nic.mac1609_4 	ReceivedUnicastPackets 	0
scalar IntersectionExampleScenario.node[34].nic.mac1609_4 	ReceivedBroadcasts 	0
scalar IntersectionExampleScenario.node[34].nic.mac1609_4 	SentPackets 	0
scalar IntersectionExampleScenario.node[34].nic.mac1609_4 	SNIRLostPackets 	0
scalar IntersectionExampleScenario.node[34].nic.mac1609_4 	RXTXLostPackets 	0
scalar IntersectionExampleScenario.node[34].nic.mac1609_4 	TotalLostPackets 	0
scalar IntersectionExampleScenario.node[34].nic.mac1609_4 	DroppedPacketsInMac 	0
scalar IntersectionExampleScenario.node[34].nic.mac1609_4 	TooLittleTime 	0
scalar IntersectionExampleScenario.node[34].nic.mac1609_4 	TimesIntoBackoff 	0
scalar IntersectionExampleScenario.node[34].nic.mac1609_4 	SlotsBackoff 	0
scalar IntersectionExampleScenario.node[34].nic.mac1609_4 	NumInternalContention 	0
scalar IntersectionExampleScenario.node[34].nic.mac1609_4 	totalBusyTime 	0
scalar IntersectionExampleScenario.node[34].veinsmobility 	startTime 	88
scalar IntersectionExampleScenario.node[34].veinsmobility 	totalTime 	69.75
scalar IntersectionExampleScenario.node[34].veinsmobility 	stopTime 	158
scalar IntersectionExampleScenario.node[34].veinsmobility 	minSpeed 	0
scalar IntersectionExampleScenario.node[34].veinsmobility 	maxSpeed 	16.27499961853
scalar IntersectionExampleScenario.node[34].veinsmobility 	totalDistance 	552.42881011963
scalar IntersectionExampleScenario.node[34].veinsmobility 	totalCO2Emission 	165.95196978274
scalar IntersectionExampleScenario.node[43].appl 	VehicleRemoved 	0
scalar IntersectionExampleScenario.node[43].appl 	ArrivedAtDest 	1
scalar IntersectionExampleScenario.node[43].appl 	IntersectionEnterTime 	111
scalar IntersectionExampleScenario.node[43].appl 	IntersectionExitTime 	142.81698606737
scalar IntersectionExampleScenario.node[43].appl 	NumberOfCollisions 	0
scalar IntersectionExampleScenario.node[43].nic.phy80211p 	busyTime 	0
scalar IntersectionExampleScenario.node[43].nic.mac1609_4 	ReceivedUnicastPackets 	0
scalar IntersectionExampleScenario.node[43].nic.mac1609_4 	ReceivedBroadcasts 	0
scalar IntersectionExampleScenario.node[43].nic.mac1609_4 	SentPackets 	0
scalar IntersectionExampleScenario.node[43].nic.mac1609_4 	SNIRLostPackets 	0
scalar IntersectionExampleScenario.node[43].nic.mac1609_4 	RXTXLostPackets 	0
scalar IntersectionExampleScenario.node[43].nic.mac1609_4 	TotalLostPackets 	0
scalar IntersectionExampleScenario.node[43].nic.mac1609_4 	DroppedPacketsInMac 	0
scalar IntersectionExampleScenario.node[43].nic.mac1609_4 	TooLittleTime 	0
scalar IntersectionExampleScenario.node[43].nic.mac1609_4 	TimesIntoBackoff 	0
scalar IntersectionExampleScenario.node[43].nic.mac1609_4 	SlotsBackoff 	0
scalar IntersectionExampleScenario.node[43].nic.mac1609_4 	NumInternalContention 	0
scalar IntersectionExampleScenario.node[43].nic.mac1609_4 	totalBusyTime 	0
scalar IntersectionExampleScenario.node[43].veinsmobility 	startTime 	111
scalar IntersectionExampleScenario.node[43].veinsmobility 	totalTime 	47.75
scalar IntersectionExampleScenario.node[43].veinsmobility 	stopTime 	159
scalar IntersectionExampleScenario.node[43].veinsmobility 	minSpeed 	2.1448128223419
scalar IntersectionExampleScenario.node[43].veinsmobility 	maxSpeed 	15.64999961853
scalar IntersectionExampleScenario.node[43].veinsmobility 	totalDistance 	554.83856201264
scalar IntersectionExampleScenario.node[43].veinsmobility 	totalCO2Emission 	136.0942240628
scalar IntersectionExampleScenario.node[35].appl 	VehicleRemoved 	0
scalar IntersectionExampleScenario.node[35].appl 	ArrivedAtDest 	1
scalar IntersectionExampleScenario.node[35].appl 	IntersectionEnterTime 	88.25
scalar IntersectionExampleScenario.node[35].appl 	IntersectionExitTime 	145.06843268292
scalar IntersectionExampleScenario.node[35].appl 	NumberOfCollisions 	0
scalar IntersectionExampleScenario.node[35].nic.phy80211p 	busyTime 	0
scalar IntersectionExampleScenario.node[35].nic.mac1609_4 	ReceivedUnicastPackets 	0
scalar IntersectionExampleScenario.node[35].nic.mac1609_4 	ReceivedBroadcasts 	0
scalar IntersectionExampleScenario.node[35].nic.mac1609_4 	SentPackets 	0
scalar IntersectionExampleScenario.node[35].nic.mac1609_4 	SNIRLostPackets 	0
scalar IntersectionExampleScenario.node[35].nic.mac1609_4 	RXTXLostPackets 	0
scalar IntersectionExampleScenario.node[35].nic.mac1609_4 	TotalLostPackets 	0
scalar IntersectionExampleScenario.node[35].nic.mac1609_4 	DroppedPacketsInMac 	0
scalar IntersectionExampleScenario.node[35].nic.mac1609_4 	TooLittleTime 	0
scalar IntersectionExampleScenario.node[35].nic.mac1609_4 	TimesIntoBackoff 	0
scalar IntersectionExampleScenario.node[35].nic.mac1609_4 	SlotsBackoff 	0
[...]
scalar IntersectionExampleScenario.node[654].veinsmobility 	totalDistance 	254.31201171875
scalar IntersectionExampleScenario.node[654].veinsmobility 	totalCO2Emission 	68.290106351823
scalar IntersectionExampleScenario.node[655].appl 	VehicleRemoved 	0
scalar IntersectionExampleScenario.node[655].appl 	ArrivedAtDest 	0
scalar IntersectionExampleScenario.node[655].appl 	IntersectionEnterTime 	1775.5
scalar IntersectionExampleScenario.node[655].appl 	IntersectionExitTime 	-1
scalar IntersectionExampleScenario.node[655].appl 	NumberOfCollisions 	0
scalar IntersectionExampleScenario.node[655].nic.phy80211p 	busyTime 	0
scalar IntersectionExampleScenario.node[655].nic.mac1609_4 	ReceivedUnicastPackets 	0
scalar IntersectionExampleScenario.node[655].nic.mac1609_4 	ReceivedBroadcasts 	0
scalar IntersectionExampleScenario.node[655].nic.mac1609_4 	SentPackets 	0
scalar IntersectionExampleScenario.node[655].nic.mac1609_4 	SNIRLostPackets 	0
scalar IntersectionExampleScenario.node[655].nic.mac1609_4 	RXTXLostPackets 	0
scalar IntersectionExampleScenario.node[655].nic.mac1609_4 	TotalLostPackets 	0
scalar IntersectionExampleScenario.node[655].nic.mac1609_4 	DroppedPacketsInMac 	0
scalar IntersectionExampleScenario.node[655].nic.mac1609_4 	TooLittleTime 	0
scalar IntersectionExampleScenario.node[655].nic.mac1609_4 	TimesIntoBackoff 	0
scalar IntersectionExampleScenario.node[655].nic.mac1609_4 	SlotsBackoff 	0
scalar IntersectionExampleScenario.node[655].nic.mac1609_4 	NumInternalContention 	0
scalar IntersectionExampleScenario.node[655].nic.mac1609_4 	totalBusyTime 	0
scalar IntersectionExampleScenario.node[655].veinsmobility 	startTime 	1775.5
scalar IntersectionExampleScenario.node[655].veinsmobility 	totalTime 	24.5
scalar IntersectionExampleScenario.node[655].veinsmobility 	stopTime 	1800
scalar IntersectionExampleScenario.node[655].veinsmobility 	minSpeed 	1.5411095619202
scalar IntersectionExampleScenario.node[655].veinsmobility 	maxSpeed 	15.64999961853
scalar IntersectionExampleScenario.node[655].veinsmobility 	totalDistance 	244.82247924805
scalar IntersectionExampleScenario.node[655].veinsmobility 	totalCO2Emission 	59.687568009679
scalar IntersectionExampleScenario.node[656].appl 	VehicleRemoved 	0
scalar IntersectionExampleScenario.node[656].appl 	ArrivedAtDest 	0
scalar IntersectionExampleScenario.node[656].appl 	IntersectionEnterTime 	1783
scalar IntersectionExampleScenario.node[656].appl 	IntersectionExitTime 	-1
scalar IntersectionExampleScenario.node[656].appl 	NumberOfCollisions 	0
scalar IntersectionExampleScenario.node[656].nic.phy80211p 	busyTime 	0
scalar IntersectionExampleScenario.node[656].nic.mac1609_4 	ReceivedUnicastPackets 	0
scalar IntersectionExampleScenario.node[656].nic.mac1609_4 	ReceivedBroadcasts 	0
scalar IntersectionExampleScenario.node[656].nic.mac1609_4 	SentPackets 	0
scalar IntersectionExampleScenario.node[656].nic.mac1609_4 	SNIRLostPackets 	0
scalar IntersectionExampleScenario.node[656].nic.mac1609_4 	RXTXLostPackets 	0
scalar IntersectionExampleScenario.node[656].nic.mac1609_4 	TotalLostPackets 	0
scalar IntersectionExampleScenario.node[656].nic.mac1609_4 	DroppedPacketsInMac 	0
scalar IntersectionExampleScenario.node[656].nic.mac1609_4 	TooLittleTime 	0
scalar IntersectionExampleScenario.node[656].nic.mac1609_4 	TimesIntoBackoff 	0
scalar IntersectionExampleScenario.node[656].nic.mac1609_4 	SlotsBackoff 	0
scalar IntersectionExampleScenario.node[656].nic.mac1609_4 	NumInternalContention 	0
scalar IntersectionExampleScenario.node[656].nic.mac1609_4 	totalBusyTime 	0
scalar IntersectionExampleScenario.node[656].veinsmobility 	startTime 	1783
scalar IntersectionExampleScenario.node[656].veinsmobility 	totalTime 	17
scalar IntersectionExampleScenario.node[656].veinsmobility 	stopTime 	1800
scalar IntersectionExampleScenario.node[656].veinsmobility 	minSpeed 	5.6500000953674
scalar IntersectionExampleScenario.node[656].veinsmobility 	maxSpeed 	15.02499961853
scalar IntersectionExampleScenario.node[656].veinsmobility 	totalDistance 	214.36902618408
scalar IntersectionExampleScenario.node[656].veinsmobility 	totalCO2Emission 	51.966413214579
scalar IntersectionExampleScenario.node[657].appl 	VehicleRemoved 	0
scalar IntersectionExampleScenario.node[657].appl 	ArrivedAtDest 	0
scalar IntersectionExampleScenario.node[657].appl 	IntersectionEnterTime 	1790.25
scalar IntersectionExampleScenario.node[657].appl 	IntersectionExitTime 	-1
scalar IntersectionExampleScenario.node[657].appl 	NumberOfCollisions 	0
scalar IntersectionExampleScenario.node[657].nic.phy80211p 	busyTime 	0
scalar IntersectionExampleScenario.node[657].nic.mac1609_4 	ReceivedUnicastPackets 	0
scalar IntersectionExampleScenario.node[657].nic.mac1609_4 	ReceivedBroadcasts 	0
scalar IntersectionExampleScenario.node[657].nic.mac1609_4 	SentPackets 	0
scalar IntersectionExampleScenario.node[657].nic.mac1609_4 	SNIRLostPackets 	0
scalar IntersectionExampleScenario.node[657].nic.mac1609_4 	RXTXLostPackets 	0
scalar IntersectionExampleScenario.node[657].nic.mac1609_4 	TotalLostPackets 	0
scalar IntersectionExampleScenario.node[657].nic.mac1609_4 	DroppedPacketsInMac 	0
scalar IntersectionExampleScenario.node[657].nic.mac1609_4 	TooLittleTime 	0
scalar IntersectionExampleScenario.node[657].nic.mac1609_4 	TimesIntoBackoff 	0
scalar IntersectionExampleScenario.node[657].nic.mac1609_4 	SlotsBackoff 	0
scalar IntersectionExampleScenario.node[657].nic.mac1609_4 	NumInternalContention 	0
scalar IntersectionExampleScenario.node[657].nic.mac1609_4 	totalBusyTime 	0
scalar IntersectionExampleScenario.node[657].veinsmobility 	startTime 	1790.25
scalar IntersectionExampleScenario.node[657].veinsmobility 	totalTime 	9.75
scalar IntersectionExampleScenario.node[657].veinsmobility 	stopTime 	1800
scalar IntersectionExampleScenario.node[657].veinsmobility 	minSpeed 	5.6500000953674
scalar IntersectionExampleScenario.node[657].veinsmobility 	maxSpeed 	15.64999961853
scalar IntersectionExampleScenario.node[657].veinsmobility 	totalDistance 	127.86151123047
scalar IntersectionExampleScenario.node[657].veinsmobility 	totalCO2Emission 	43.959859797364
scalar IntersectionExampleScenario.node[658].appl 	VehicleRemoved 	0
scalar IntersectionExampleScenario.node[658].appl 	ArrivedAtDest 	0
scalar IntersectionExampleScenario.node[658].appl 	IntersectionEnterTime 	1790.5
scalar IntersectionExampleScenario.node[658].appl 	IntersectionExitTime 	-1
scalar IntersectionExampleScenario.node[658].appl 	NumberOfCollisions 	0
scalar IntersectionExampleScenario.node[658].nic.phy80211p 	busyTime 	0
scalar IntersectionExampleScenario.node[658].nic.mac1609_4 	ReceivedUnicastPackets 	0
scalar IntersectionExampleScenario.node[658].nic.mac1609_4 	ReceivedBroadcasts 	0
scalar IntersectionExampleScenario.node[658].nic.mac1609_4 	SentPackets 	0
scalar IntersectionExampleScenario.node[658].nic.mac1609_4 	SNIRLostPackets 	0
scalar IntersectionExampleScenario.node[658].nic.mac1609_4 	RXTXLostPackets 	0
scalar IntersectionExampleScenario.node[658].nic.mac1609_4 	TotalLostPackets 	0
scalar IntersectionExampleScenario.node[658].nic.mac1609_4 	DroppedPacketsInMac 	0
scalar IntersectionExampleScenario.node[658].nic.mac1609_4 	TooLittleTime 	0
scalar IntersectionExampleScenario.node[658].nic.mac1609_4 	TimesIntoBackoff 	0
scalar IntersectionExampleScenario.node[658].nic.mac1609_4 	SlotsBackoff 	0
scalar IntersectionExampleScenario.node[658].nic.mac1609_4 	NumInternalContention 	0
scalar IntersectionExampleScenario.node[658].nic.mac1609_4 	totalBusyTime 	0
scalar IntersectionExampleScenario.node[658].veinsmobility 	startTime 	1790.5
scalar IntersectionExampleScenario.node[658].veinsmobility 	totalTime 	9.5
scalar IntersectionExampleScenario.node[658].veinsmobility 	stopTime 	1800
scalar IntersectionExampleScenario.node[658].veinsmobility 	minSpeed 	5.6500000953674
scalar IntersectionExampleScenario.node[658].veinsmobility 	maxSpeed 	15.02499961853
scalar IntersectionExampleScenario.node[658].veinsmobility 	totalDistance 	122.08168792725
scalar IntersectionExampleScenario.node[658].veinsmobility 	totalCO2Emission 	41.447198253759
scalar IntersectionExampleScenario.node[659].appl 	VehicleRemoved 	0
scalar IntersectionExampleScenario.node[659].appl 	ArrivedAtDest 	0
scalar IntersectionExampleScenario.node[659].appl 	IntersectionEnterTime 	1794
scalar IntersectionExampleScenario.node[659].appl 	IntersectionExitTime 	-1
scalar IntersectionExampleScenario.node[659].appl 	NumberOfCollisions 	0
scalar IntersectionExampleScenario.node[659].nic.phy80211p 	busyTime 	0
scalar IntersectionExampleScenario.node[659].nic.mac1609_4 	ReceivedUnicastPackets 	0
scalar IntersectionExampleScenario.node[659].nic.mac1609_4 	ReceivedBroadcasts 	0
scalar IntersectionExampleScenario.node[659].nic.mac1609_4 	SentPackets 	0
scalar IntersectionExampleScenario.node[659].nic.mac1609_4 	SNIRLostPackets 	0
scalar IntersectionExampleScenario.node[659].nic.mac1609_4 	RXTXLostPackets 	0
scalar IntersectionExampleScenario.node[659].nic.mac1609_4 	TotalLostPackets 	0
scalar IntersectionExampleScenario.node[659].nic.mac1609_4 	DroppedPacketsInMac 	0
scalar IntersectionExampleScenario.node[659].nic.mac1609_4 	TooLittleTime 	0
scalar IntersectionExampleScenario.node[659].nic.mac1609_4 	TimesIntoBackoff 	0
scalar IntersectionExampleScenario.node[659].nic.mac1609_4 	SlotsBackoff 	0
scalar IntersectionExampleScenario.node[659].nic.mac1609_4 	NumInternalContention 	0
scalar IntersectionExampleScenario.node[659].nic.mac1609_4 	totalBusyTime 	0
scalar IntersectionExampleScenario.node[659].veinsmobility 	startTime 	1794
scalar IntersectionExampleScenario.node[659].veinsmobility 	totalTime 	6
scalar IntersectionExampleScenario.node[659].veinsmobility 	stopTime 	1800
scalar IntersectionExampleScenario.node[659].veinsmobility 	minSpeed 	5.6500000953674
scalar IntersectionExampleScenario.node[659].veinsmobility 	maxSpeed 	15.64999961853
scalar IntersectionExampleScenario.node[659].veinsmobility 	totalDistance 	71.2880859375
scalar IntersectionExampleScenario.node[659].veinsmobility 	totalCO2Emission 	37.334988416214
scalar IntersectionExampleScenario.node[660].appl 	VehicleRemoved 	0
scalar IntersectionExampleScenario.node[660].appl 	ArrivedAtDest 	0
scalar IntersectionExampleScenario.node[660].appl 	IntersectionEnterTime 	1794.5
scalar IntersectionExampleScenario.node[660].appl 	IntersectionExitTime 	-1
scalar IntersectionExampleScenario.node[660].appl 	NumberOfCollisions 	0
scalar IntersectionExampleScenario.node[660].nic.phy80211p 	busyTime 	0
scalar IntersectionExampleScenario.node[660].nic.mac1609_4 	ReceivedUnicastPackets 	0
scalar IntersectionExampleScenario.node[660].nic.mac1609_4 	ReceivedBroadcasts 	0
scalar IntersectionExampleScenario.node[660].nic.mac1609_4 	SentPackets 	0
scalar IntersectionExampleScenario.node[660].nic.mac1609_4 	SNIRLostPackets 	0
scalar IntersectionExampleScenario.node[660].nic.mac1609_4 	RXTXLostPackets 	0
scalar IntersectionExampleScenario.node[660].nic.mac1609_4 	TotalLostPackets 	0
scalar IntersectionExampleScenario.node[660].nic.mac1609_4 	DroppedPacketsInMac 	0
scalar IntersectionExampleScenario.node[660].nic.mac1609_4 	TooLittleTime 	0
scalar IntersectionExampleScenario.node[660].nic.mac1609_4 	TimesIntoBackoff 	0
scalar IntersectionExampleScenario.node[660].nic.mac1609_4 	SlotsBackoff 	0
scalar IntersectionExampleScenario.node[660].nic.mac1609_4 	NumInternalContention 	0
scalar IntersectionExampleScenario.node[660].nic.mac1609_4 	totalBusyTime 	0
scalar IntersectionExampleScenario.node[660].veinsmobility 	startTime 	1794.5
scalar IntersectionExampleScenario.node[660].veinsmobility 	totalTime 	5.5
scalar IntersectionExampleScenario.node[660].veinsmobility 	stopTime 	1800
scalar IntersectionExampleScenario.node[660].veinsmobility 	minSpeed 	5.6500000953674
scalar IntersectionExampleScenario.node[660].veinsmobility 	maxSpeed 	15.64999961853
scalar IntersectionExampleScenario.node[660].veinsmobility 	totalDistance 	63.225288391113
scalar IntersectionExampleScenario.node[660].veinsmobility 	totalCO2Emission 	35.206010931527
scalar IntersectionExampleScenario.node[661].appl 	VehicleRemoved 	0
scalar IntersectionExampleScenario.node[661].appl 	ArrivedAtDest 	0
scalar IntersectionExampleScenario.node[661].appl 	IntersectionEnterTime 	1794.75
scalar IntersectionExampleScenario.node[661].appl 	IntersectionExitTime 	-1
scalar IntersectionExampleScenario.node[661].appl 	NumberOfCollisions 	0
scalar IntersectionExampleScenario.node[661].nic.phy80211p 	busyTime 	0
scalar IntersectionExampleScenario.node[661].nic.mac1609_4 	ReceivedUnicastPackets 	0
scalar IntersectionExampleScenario.node[661].nic.mac1609_4 	ReceivedBroadcasts 	0
scalar IntersectionExampleScenario.node[661].nic.mac1609_4 	SentPackets 	0
scalar IntersectionExampleScenario.node[661].nic.mac1609_4 	SNIRLostPackets 	0
scalar IntersectionExampleScenario.node[661].nic.mac1609_4 	RXTXLostPackets 	0
scalar IntersectionExampleScenario.node[661].nic.mac1609_4 	TotalLostPackets 	0
scalar IntersectionExampleScenario.node[661].nic.mac1609_4 	DroppedPacketsInMac 	0
scalar IntersectionExampleScenario.node[661].nic.mac1609_4 	TooLittleTime 	0
scalar IntersectionExampleScenario.node[661].nic.mac1609_4 	TimesIntoBackoff 	0
scalar IntersectionExampleScenario.node[661].nic.mac1609_4 	SlotsBackoff 	0
scalar IntersectionExampleScenario.node[661].nic.mac1609_4 	NumInternalContention 	0
scalar IntersectionExampleScenario.node[661].nic.mac1609_4 	totalBusyTime 	0
scalar IntersectionExampleScenario.node[661].veinsmobility 	startTime 	1794.75
scalar IntersectionExampleScenario.node[661].veinsmobility 	totalTime 	5.25
scalar IntersectionExampleScenario.node[661].veinsmobility 	stopTime 	1800
scalar IntersectionExampleScenario.node[661].veinsmobility 	minSpeed 	5.6500000953674
scalar IntersectionExampleScenario.node[661].veinsmobility 	maxSpeed 	15.767908096313
scalar IntersectionExampleScenario.node[661].veinsmobility 	totalDistance 	56.232040405273
scalar IntersectionExampleScenario.node[661].veinsmobility 	totalCO2Emission 	35.564855215616
scalar IntersectionExampleScenario.node[662].appl 	VehicleRemoved 	0
scalar IntersectionExampleScenario.node[662].appl 	ArrivedAtDest 	0
scalar IntersectionExampleScenario.node[662].appl 	IntersectionEnterTime 	1798.5
scalar IntersectionExampleScenario.node[662].appl 	IntersectionExitTime 	-1
scalar IntersectionExampleScenario.node[662].appl 	NumberOfCollisions 	0
scalar IntersectionExampleScenario.node[662].nic.phy80211p 	busyTime 	0
scalar IntersectionExampleScenario.node[662].nic.mac1609_4 	ReceivedUnicastPackets 	0
scalar IntersectionExampleScenario.node[662].nic.mac1609_4 	ReceivedBroadcasts 	0
scalar IntersectionExampleScenario.node[662].nic.mac1609_4 	SentPackets 	0
scalar IntersectionExampleScenario.node[662].nic.mac1609_4 	SNIRLostPackets 	0
scalar IntersectionExampleScenario.node[662].nic.mac1609_4 	RXTXLostPackets 	0
scalar IntersectionExampleScenario.node[662].nic.mac1609_4 	TotalLostPackets 	0
scalar IntersectionExampleScenario.node[662].nic.mac1609_4 	DroppedPacketsInMac 	0
scalar IntersectionExampleScenario.node[662].nic.mac1609_4 	TooLittleTime 	0
scalar IntersectionExampleScenario.node[662].nic.mac1609_4 	TimesIntoBackoff 	0
scalar IntersectionExampleScenario.node[662].nic.mac1609_4 	SlotsBackoff 	0
scalar IntersectionExampleScenario.node[662].nic.mac1609_4 	NumInternalContention 	0
scalar IntersectionExampleScenario.node[662].nic.mac1609_4 	totalBusyTime 	0
scalar IntersectionExampleScenario.node[662].veinsmobility 	startTime 	1798.5
scalar IntersectionExampleScenario.node[662].veinsmobility 	totalTime 	1.5
scalar IntersectionExampleScenario.node[662].veinsmobility 	stopTime 	1800
scalar IntersectionExampleScenario.node[662].veinsmobility 	minSpeed 	5.6500000953674
scalar IntersectionExampleScenario.node[662].veinsmobility 	maxSpeed 	8.7749996185303
scalar IntersectionExampleScenario.node[662].veinsmobility 	totalDistance 	10.349990844727
scalar IntersectionExampleScenario.node[662].veinsmobility 	totalCO2Emission 	7.5597628883124
scalar IntersectionExampleScenario.node[663].appl 	VehicleRemoved 	0
scalar IntersectionExampleScenario.node[663].appl 	ArrivedAtDest 	0
scalar IntersectionExampleScenario.node[663].appl 	IntersectionEnterTime 	1799
scalar IntersectionExampleScenario.node[663].appl 	IntersectionExitTime 	-1
scalar IntersectionExampleScenario.node[663].appl 	NumberOfCollisions 	0
scalar IntersectionExampleScenario.node[663].nic.phy80211p 	busyTime 	0
scalar IntersectionExampleScenario.node[663].nic.mac1609_4 	ReceivedUnicastPackets 	0
scalar IntersectionExampleScenario.node[663].nic.mac1609_4 	ReceivedBroadcasts 	0
scalar IntersectionExampleScenario.node[663].nic.mac1609_4 	SentPackets 	0
scalar IntersectionExampleScenario.node[663].nic.mac1609_4 	SNIRLostPackets 	0
scalar IntersectionExampleScenario.node[663].nic.mac1609_4 	RXTXLostPackets 	0
scalar IntersectionExampleScenario.node[663].nic.mac1609_4 	TotalLostPackets 	0
scalar IntersectionExampleScenario.node[663].nic.mac1609_4 	DroppedPacketsInMac 	0
scalar IntersectionExampleScenario.node[663].nic.mac1609_4 	TooLittleTime 	0
scalar IntersectionExampleScenario.node[663].nic.mac1609_4 	TimesIntoBackoff 	0
scalar IntersectionExampleScenario.node[663].nic.mac1609_4 	SlotsBackoff 	0
scalar IntersectionExampleScenario.node[663].nic.mac1609_4 	NumInternalContention 	0
scalar IntersectionExampleScenario.node[663].nic.mac1609_4 	totalBusyTime 	0
scalar IntersectionExampleScenario.node[663].veinsmobility 	startTime 	1799
scalar IntersectionExampleScenario.node[663].veinsmobility 	totalTime 	1
scalar IntersectionExampleScenario.node[663].veinsmobility 	stopTime 	1800
scalar IntersectionExampleScenario.node[663].veinsmobility 	minSpeed 	5.6500000953674
scalar IntersectionExampleScenario.node[663].veinsmobility 	maxSpeed 	7.5250000953674
scalar IntersectionExampleScenario.node[663].veinsmobility 	totalDistance 	6.2750244140625
scalar IntersectionExampleScenario.node[663].veinsmobility 	totalCO2Emission 	4.2232135025359
scalar IntersectionExampleScenario.node[664].appl 	VehicleRemoved 	0
scalar IntersectionExampleScenario.node[664].appl 	ArrivedAtDest 	0
scalar IntersectionExampleScenario.node[664].appl 	IntersectionEnterTime 	1799.5
scalar IntersectionExampleScenario.node[664].appl 	IntersectionExitTime 	-1
scalar IntersectionExampleScenario.node[664].appl 	NumberOfCollisions 	0
scalar IntersectionExampleScenario.node[664].nic.phy80211p 	busyTime 	0
scalar IntersectionExampleScenario.node[664].nic.mac1609_4 	ReceivedUnicastPackets 	0
scalar IntersectionExampleScenario.node[664].nic.mac1609_4 	ReceivedBroadcasts 	0
scalar IntersectionExampleScenario.node[664].nic.mac1609_4 	SentPackets 	0
scalar IntersectionExampleScenario.node[664].nic.mac1609_4 	SNIRLostPackets 	0
scalar IntersectionExampleScenario.node[664].nic.mac1609_4 	RXTXLostPackets 	0
scalar IntersectionExampleScenario.node[664].nic.mac1609_4 	TotalLostPackets 	0
scalar IntersectionExampleScenario.node[664].nic.mac1609_4 	DroppedPacketsInMac 	0
scalar IntersectionExampleScenario.node[664].nic.mac1609_4 	TooLittleTime 	0
scalar IntersectionExampleScenario.node[664].nic.mac1609_4 	TimesIntoBackoff 	0
scalar IntersectionExampleScenario.node[664].nic.mac1609_4 	SlotsBackoff 	0
scalar IntersectionExampleScenario.node[664].nic.mac1609_4 	NumInternalContention 	0
scalar IntersectionExampleScenario.node[664].nic.mac1609_4 	totalBusyTime 	0
scalar IntersectionExampleScenario.node[664].veinsmobility 	startTime 	1799.5
scalar IntersectionExampleScenario.node[664].veinsmobility 	totalTime 	0.5
scalar IntersectionExampleScenario.node[664].veinsmobility 	stopTime 	1800
scalar IntersectionExampleScenario.node[664].veinsmobility 	minSpeed 	5.6500000953674
scalar IntersectionExampleScenario.node[664].veinsmobility 	maxSpeed 	6.2750000953674
scalar IntersectionExampleScenario.node[664].veinsmobility 	totalDistance 	2.8250122070312
scalar IntersectionExampleScenario.node[664].veinsmobility 	totalCO2Emission 	1.3040546814646
