version 2
run nodebug-39-20200605-17:42:48-20012
attr configname nodebug
attr datetime 20200605-17:42:48
attr experiment nodebug
attr inifile omnetpp.ini
attr iterationvars ""
attr iterationvars2 $repetition=39
attr measurement ""
attr network "\"org.car2x.veins.modules.application.ExtTraCIScenarioManagerLaunchd.IntersectionExampleScenario\""
attr processid 20012
attr repetition 39
attr replication #39
attr resultdir results
attr runnumber 39
attr seedset 39
param **.coreDebug false
param **.debug false
param *.**.nic.mac1609_4.bitrate 18Mbps
param *.**.nic.mac1609_4.txPower 20mW
param *.**.nic.mac1609_4.useServiceChannel false
param *.**.nic.phy80211p.analogueModels "xmldoc(\"config.xml\")"
param *.**.nic.phy80211p.decider "xmldoc(\"config.xml\")"
param *.**.nic.phy80211p.sensitivity -89dBm
param *.**.nic.phy80211p.thermalNoise -110dBm
param *.**.nic.phy80211p.usePropagationDelay true
param *.**.nic.phy80211p.useThermalNoise true
param *.annotations.draw false
param *.connectionManager.alpha 2.0
param *.connectionManager.carrierFrequency "5.890e9 Hz"
param *.connectionManager.pMax 20mW
param *.connectionManager.sat -89dBm
param *.connectionManager.sendDirect true
param *.manager.autoShutdown true
param *.manager.host "\"localhost\""
param *.manager.launchConfig "xmldoc(\"paramics.launchd.xml\")"
param *.manager.margin 25
param *.manager.moduleDisplayString "\"\""
param *.manager.moduleName "\"node\""
param *.manager.moduleType "\"org.car2x.veins.nodes.Car\""
param *.manager.port 9999
param *.manager.updateInterval 250ms
param *.node[*0].veinsmobility.accidentCount 0
param *.node[*0].veinsmobility.accidentDuration 30s
param *.node[*0].veinsmobility.accidentStart 75s
param *.node[*].appl.LiderSelectZoneRadio 55.0
param *.node[*].appl.ShareDataZoneRadio 110.0
param *.node[*].appl.TiempoSemaforo 30.0
param *.node[*].appl.beaconInterval 1s
param *.node[*].appl.beaconPriority 3
param *.node[*].appl.dataOnSch false
param *.node[*].appl.dataPriority 2
param *.node[*].appl.debug false
param *.node[*].appl.headerLength "256 bit"
param *.node[*].appl.maxOffset 0.005s
param *.node[*].appl.sendBeacons false
param *.node[*].appl.sendData true
param *.node[*].applType "\"Dummy\""
param *.node[*].mobilityType "\"TraCIMobility\""
param *.node[*].mobilityType.debug true
param *.node[*].veinsmobility.x 0
param *.node[*].veinsmobility.y 0
param *.node[*].veinsmobility.z 1.895
param *.node[*].veinsmobilityType "\"org.car2x.veins.modules.mobility.traci.TraCIMobility\""
param *.node[*].veinsmobilityType.debug true
param *.playgroundSizeX 8500m
param *.playgroundSizeY 8500m
param *.playgroundSizeZ 50m
param *.world.use2D false
param *.world.useTorus false

scalar IntersectionExampleScenario.node[3].appl 	VehicleRemoved 	0
scalar IntersectionExampleScenario.node[3].appl 	ArrivedAtDest 	1
scalar IntersectionExampleScenario.node[3].appl 	IntersectionEnterTime 	11.5
scalar IntersectionExampleScenario.node[3].appl 	IntersectionExitTime 	33.618282515352
scalar IntersectionExampleScenario.node[3].appl 	NumberOfCollisions 	0
scalar IntersectionExampleScenario.node[3].nic.phy80211p 	busyTime 	0
scalar IntersectionExampleScenario.node[3].nic.mac1609_4 	ReceivedUnicastPackets 	0
scalar IntersectionExampleScenario.node[3].nic.mac1609_4 	ReceivedBroadcasts 	0
scalar IntersectionExampleScenario.node[3].nic.mac1609_4 	SentPackets 	0
scalar IntersectionExampleScenario.node[3].nic.mac1609_4 	SNIRLostPackets 	0
scalar IntersectionExampleScenario.node[3].nic.mac1609_4 	RXTXLostPackets 	0
scalar IntersectionExampleScenario.node[3].nic.mac1609_4 	TotalLostPackets 	0
scalar IntersectionExampleScenario.node[3].nic.mac1609_4 	DroppedPacketsInMac 	0
scalar IntersectionExampleScenario.node[3].nic.mac1609_4 	TooLittleTime 	0
scalar IntersectionExampleScenario.node[3].nic.mac1609_4 	TimesIntoBackoff 	0
scalar IntersectionExampleScenario.node[3].nic.mac1609_4 	SlotsBackoff 	0
scalar IntersectionExampleScenario.node[3].nic.mac1609_4 	NumInternalContention 	0
scalar IntersectionExampleScenario.node[3].nic.mac1609_4 	totalBusyTime 	0
scalar IntersectionExampleScenario.node[3].veinsmobility 	startTime 	11.5
scalar IntersectionExampleScenario.node[3].veinsmobility 	totalTime 	37
scalar IntersectionExampleScenario.node[3].veinsmobility 	stopTime 	48.75
scalar IntersectionExampleScenario.node[3].veinsmobility 	minSpeed 	5.6500000953674
scalar IntersectionExampleScenario.node[3].veinsmobility 	maxSpeed 	16.75
scalar IntersectionExampleScenario.node[3].veinsmobility 	totalDistance 	552.55521392822
scalar IntersectionExampleScenario.node[3].veinsmobility 	totalCO2Emission 	124.62722998781
scalar IntersectionExampleScenario.node[7].appl 	VehicleRemoved 	0
scalar IntersectionExampleScenario.node[7].appl 	ArrivedAtDest 	1
scalar IntersectionExampleScenario.node[7].appl 	IntersectionEnterTime 	22
scalar IntersectionExampleScenario.node[7].appl 	IntersectionExitTime 	45.318593647098
scalar IntersectionExampleScenario.node[7].appl 	NumberOfCollisions 	0
scalar IntersectionExampleScenario.node[7].nic.phy80211p 	busyTime 	0
scalar IntersectionExampleScenario.node[7].nic.mac1609_4 	ReceivedUnicastPackets 	0
scalar IntersectionExampleScenario.node[7].nic.mac1609_4 	ReceivedBroadcasts 	0
scalar IntersectionExampleScenario.node[7].nic.mac1609_4 	SentPackets 	0
scalar IntersectionExampleScenario.node[7].nic.mac1609_4 	SNIRLostPackets 	0
scalar IntersectionExampleScenario.node[7].nic.mac1609_4 	RXTXLostPackets 	0
scalar IntersectionExampleScenario.node[7].nic.mac1609_4 	TotalLostPackets 	0
scalar IntersectionExampleScenario.node[7].nic.mac1609_4 	DroppedPacketsInMac 	0
scalar IntersectionExampleScenario.node[7].nic.mac1609_4 	TooLittleTime 	0
scalar IntersectionExampleScenario.node[7].nic.mac1609_4 	TimesIntoBackoff 	0
scalar IntersectionExampleScenario.node[7].nic.mac1609_4 	SlotsBackoff 	0
scalar IntersectionExampleScenario.node[7].nic.mac1609_4 	NumInternalContention 	0
scalar IntersectionExampleScenario.node[7].nic.mac1609_4 	totalBusyTime 	0
scalar IntersectionExampleScenario.node[7].veinsmobility 	startTime 	22
scalar IntersectionExampleScenario.node[7].veinsmobility 	totalTime 	39.5
scalar IntersectionExampleScenario.node[7].veinsmobility 	stopTime 	61.75
scalar IntersectionExampleScenario.node[7].veinsmobility 	minSpeed 	5.6500000953674
scalar IntersectionExampleScenario.node[7].veinsmobility 	maxSpeed 	15.64999961853
scalar IntersectionExampleScenario.node[7].veinsmobility 	totalDistance 	549.74302701368
scalar IntersectionExampleScenario.node[7].veinsmobility 	totalCO2Emission 	122.48462072709
scalar IntersectionExampleScenario.node[4].appl 	VehicleRemoved 	0
scalar IntersectionExampleScenario.node[4].appl 	ArrivedAtDest 	1
scalar IntersectionExampleScenario.node[4].appl 	IntersectionEnterTime 	18.75
scalar IntersectionExampleScenario.node[4].appl 	IntersectionExitTime 	51.357550476125
scalar IntersectionExampleScenario.node[4].appl 	NumberOfCollisions 	0
scalar IntersectionExampleScenario.node[4].nic.phy80211p 	busyTime 	0
scalar IntersectionExampleScenario.node[4].nic.mac1609_4 	ReceivedUnicastPackets 	0
scalar IntersectionExampleScenario.node[4].nic.mac1609_4 	ReceivedBroadcasts 	0
scalar IntersectionExampleScenario.node[4].nic.mac1609_4 	SentPackets 	0
scalar IntersectionExampleScenario.node[4].nic.mac1609_4 	SNIRLostPackets 	0
scalar IntersectionExampleScenario.node[4].nic.mac1609_4 	RXTXLostPackets 	0
scalar IntersectionExampleScenario.node[4].nic.mac1609_4 	TotalLostPackets 	0
scalar IntersectionExampleScenario.node[4].nic.mac1609_4 	DroppedPacketsInMac 	0
scalar IntersectionExampleScenario.node[4].nic.mac1609_4 	TooLittleTime 	0
scalar IntersectionExampleScenario.node[4].nic.mac1609_4 	TimesIntoBackoff 	0
scalar IntersectionExampleScenario.node[4].nic.mac1609_4 	SlotsBackoff 	0
scalar IntersectionExampleScenario.node[4].nic.mac1609_4 	NumInternalContention 	0
scalar IntersectionExampleScenario.node[4].nic.mac1609_4 	totalBusyTime 	0
scalar IntersectionExampleScenario.node[4].veinsmobility 	startTime 	18.75
scalar IntersectionExampleScenario.node[4].veinsmobility 	totalTime 	48.75
scalar IntersectionExampleScenario.node[4].veinsmobility 	stopTime 	67.75
scalar IntersectionExampleScenario.node[4].veinsmobility 	minSpeed 	0
scalar IntersectionExampleScenario.node[4].veinsmobility 	maxSpeed 	15.375
scalar IntersectionExampleScenario.node[4].veinsmobility 	totalDistance 	551.64488220215
scalar IntersectionExampleScenario.node[4].veinsmobility 	totalCO2Emission 	138.64293353381
scalar IntersectionExampleScenario.node[12].appl 	VehicleRemoved 	0
scalar IntersectionExampleScenario.node[12].appl 	ArrivedAtDest 	1
scalar IntersectionExampleScenario.node[12].appl 	IntersectionEnterTime 	32.25
scalar IntersectionExampleScenario.node[12].appl 	IntersectionExitTime 	55.806141728652
scalar IntersectionExampleScenario.node[12].appl 	NumberOfCollisions 	0
scalar IntersectionExampleScenario.node[12].nic.phy80211p 	busyTime 	0
scalar IntersectionExampleScenario.node[12].nic.mac1609_4 	ReceivedUnicastPackets 	0
scalar IntersectionExampleScenario.node[12].nic.mac1609_4 	ReceivedBroadcasts 	0
scalar IntersectionExampleScenario.node[12].nic.mac1609_4 	SentPackets 	0
scalar IntersectionExampleScenario.node[12].nic.mac1609_4 	SNIRLostPackets 	0
scalar IntersectionExampleScenario.node[12].nic.mac1609_4 	RXTXLostPackets 	0
scalar IntersectionExampleScenario.node[12].nic.mac1609_4 	TotalLostPackets 	0
scalar IntersectionExampleScenario.node[12].nic.mac1609_4 	DroppedPacketsInMac 	0
scalar IntersectionExampleScenario.node[12].nic.mac1609_4 	TooLittleTime 	0
scalar IntersectionExampleScenario.node[12].nic.mac1609_4 	TimesIntoBackoff 	0
scalar IntersectionExampleScenario.node[12].nic.mac1609_4 	SlotsBackoff 	0
scalar IntersectionExampleScenario.node[12].nic.mac1609_4 	NumInternalContention 	0
scalar IntersectionExampleScenario.node[12].nic.mac1609_4 	totalBusyTime 	0
scalar IntersectionExampleScenario.node[12].veinsmobility 	startTime 	32.25
scalar IntersectionExampleScenario.node[12].veinsmobility 	totalTime 	40
scalar IntersectionExampleScenario.node[12].veinsmobility 	stopTime 	72.5
scalar IntersectionExampleScenario.node[12].veinsmobility 	minSpeed 	5.6500000953674
scalar IntersectionExampleScenario.node[12].veinsmobility 	maxSpeed 	15.029175758362
scalar IntersectionExampleScenario.node[12].veinsmobility 	totalDistance 	553.6042175293
scalar IntersectionExampleScenario.node[12].veinsmobility 	totalCO2Emission 	117.61461913793
scalar IntersectionExampleScenario.node[0].appl 	VehicleRemoved 	0
scalar IntersectionExampleScenario.node[0].appl 	ArrivedAtDest 	1
scalar IntersectionExampleScenario.node[0].appl 	IntersectionEnterTime 	6.25
scalar IntersectionExampleScenario.node[0].appl 	IntersectionExitTime 	87.265256232669
scalar IntersectionExampleScenario.node[0].appl 	NumberOfCollisions 	0
scalar IntersectionExampleScenario.node[0].nic.phy80211p 	busyTime 	0
scalar IntersectionExampleScenario.node[0].nic.mac1609_4 	ReceivedUnicastPackets 	0
scalar IntersectionExampleScenario.node[0].nic.mac1609_4 	ReceivedBroadcasts 	0
scalar IntersectionExampleScenario.node[0].nic.mac1609_4 	SentPackets 	0
scalar IntersectionExampleScenario.node[0].nic.mac1609_4 	SNIRLostPackets 	0
scalar IntersectionExampleScenario.node[0].nic.mac1609_4 	RXTXLostPackets 	0
scalar IntersectionExampleScenario.node[0].nic.mac1609_4 	TotalLostPackets 	0
scalar IntersectionExampleScenario.node[0].nic.mac1609_4 	DroppedPacketsInMac 	0
scalar IntersectionExampleScenario.node[0].nic.mac1609_4 	TooLittleTime 	0
scalar IntersectionExampleScenario.node[0].nic.mac1609_4 	TimesIntoBackoff 	0
scalar IntersectionExampleScenario.node[0].nic.mac1609_4 	SlotsBackoff 	0
scalar IntersectionExampleScenario.node[0].nic.mac1609_4 	NumInternalContention 	0
scalar IntersectionExampleScenario.node[0].nic.mac1609_4 	totalBusyTime 	0
scalar IntersectionExampleScenario.node[0].veinsmobility 	startTime 	6.25
scalar IntersectionExampleScenario.node[0].veinsmobility 	totalTime 	97
scalar IntersectionExampleScenario.node[0].veinsmobility 	stopTime 	103.5
scalar IntersectionExampleScenario.node[0].veinsmobility 	minSpeed 	0
scalar IntersectionExampleScenario.node[0].veinsmobility 	maxSpeed 	15.64999961853
scalar IntersectionExampleScenario.node[0].veinsmobility 	totalDistance 	551.06031908145
scalar IntersectionExampleScenario.node[0].veinsmobility 	totalCO2Emission 	189.20212241704
scalar IntersectionExampleScenario.node[1].appl 	VehicleRemoved 	0
scalar IntersectionExampleScenario.node[1].appl 	ArrivedAtDest 	1
scalar IntersectionExampleScenario.node[1].appl 	IntersectionEnterTime 	8.5
scalar IntersectionExampleScenario.node[1].appl 	IntersectionExitTime 	88.058930718282
scalar IntersectionExampleScenario.node[1].appl 	NumberOfCollisions 	0
scalar IntersectionExampleScenario.node[1].nic.phy80211p 	busyTime 	0
scalar IntersectionExampleScenario.node[1].nic.mac1609_4 	ReceivedUnicastPackets 	0
scalar IntersectionExampleScenario.node[1].nic.mac1609_4 	ReceivedBroadcasts 	0
scalar IntersectionExampleScenario.node[1].nic.mac1609_4 	SentPackets 	0
scalar IntersectionExampleScenario.node[1].nic.mac1609_4 	SNIRLostPackets 	0
scalar IntersectionExampleScenario.node[1].nic.mac1609_4 	RXTXLostPackets 	0
scalar IntersectionExampleScenario.node[1].nic.mac1609_4 	TotalLostPackets 	0
scalar IntersectionExampleScenario.node[1].nic.mac1609_4 	DroppedPacketsInMac 	0
scalar IntersectionExampleScenario.node[1].nic.mac1609_4 	TooLittleTime 	0
scalar IntersectionExampleScenario.node[1].nic.mac1609_4 	TimesIntoBackoff 	0
scalar IntersectionExampleScenario.node[1].nic.mac1609_4 	SlotsBackoff 	0
scalar IntersectionExampleScenario.node[1].nic.mac1609_4 	NumInternalContention 	0
scalar IntersectionExampleScenario.node[1].nic.mac1609_4 	totalBusyTime 	0
scalar IntersectionExampleScenario.node[1].veinsmobility 	startTime 	8.5
scalar IntersectionExampleScenario.node[1].veinsmobility 	totalTime 	96.25
scalar IntersectionExampleScenario.node[1].veinsmobility 	stopTime 	105
scalar IntersectionExampleScenario.node[1].veinsmobility 	minSpeed 	0
scalar IntersectionExampleScenario.node[1].veinsmobility 	maxSpeed 	15.875
scalar IntersectionExampleScenario.node[1].veinsmobility 	totalDistance 	562.7687441721
scalar IntersectionExampleScenario.node[1].veinsmobility 	totalCO2Emission 	189.43085134503
scalar IntersectionExampleScenario.node[2].appl 	VehicleRemoved 	0
scalar IntersectionExampleScenario.node[2].appl 	ArrivedAtDest 	1
scalar IntersectionExampleScenario.node[2].appl 	IntersectionEnterTime 	10.25
scalar IntersectionExampleScenario.node[2].appl 	IntersectionExitTime 	91.118055219558
scalar IntersectionExampleScenario.node[2].appl 	NumberOfCollisions 	0
scalar IntersectionExampleScenario.node[2].nic.phy80211p 	busyTime 	0
scalar IntersectionExampleScenario.node[2].nic.mac1609_4 	ReceivedUnicastPackets 	0
scalar IntersectionExampleScenario.node[2].nic.mac1609_4 	ReceivedBroadcasts 	0
scalar IntersectionExampleScenario.node[2].nic.mac1609_4 	SentPackets 	0
scalar IntersectionExampleScenario.node[2].nic.mac1609_4 	SNIRLostPackets 	0
scalar IntersectionExampleScenario.node[2].nic.mac1609_4 	RXTXLostPackets 	0
scalar IntersectionExampleScenario.node[2].nic.mac1609_4 	TotalLostPackets 	0
scalar IntersectionExampleScenario.node[2].nic.mac1609_4 	DroppedPacketsInMac 	0
scalar IntersectionExampleScenario.node[2].nic.mac1609_4 	TooLittleTime 	0
scalar IntersectionExampleScenario.node[2].nic.mac1609_4 	TimesIntoBackoff 	0
scalar IntersectionExampleScenario.node[2].nic.mac1609_4 	SlotsBackoff 	0
scalar IntersectionExampleScenario.node[2].nic.mac1609_4 	NumInternalContention 	0
scalar IntersectionExampleScenario.node[2].nic.mac1609_4 	totalBusyTime 	0
scalar IntersectionExampleScenario.node[2].veinsmobility 	startTime 	10.25
scalar IntersectionExampleScenario.node[2].veinsmobility 	totalTime 	97.75
scalar IntersectionExampleScenario.node[2].veinsmobility 	stopTime 	108.25
scalar IntersectionExampleScenario.node[2].veinsmobility 	minSpeed 	0
scalar IntersectionExampleScenario.node[2].veinsmobility 	maxSpeed 	14.506797790527
scalar IntersectionExampleScenario.node[2].veinsmobility 	totalDistance 	580.75615692139
scalar IntersectionExampleScenario.node[2].veinsmobility 	totalCO2Emission 	182.03781401232
scalar IntersectionExampleScenario.node[5].appl 	VehicleRemoved 	0
scalar IntersectionExampleScenario.node[5].appl 	ArrivedAtDest 	1
scalar IntersectionExampleScenario.node[5].appl 	IntersectionEnterTime 	19.75
scalar IntersectionExampleScenario.node[5].appl 	IntersectionExitTime 	93.286996680254
scalar IntersectionExampleScenario.node[5].appl 	NumberOfCollisions 	0
scalar IntersectionExampleScenario.node[5].nic.phy80211p 	busyTime 	0
scalar IntersectionExampleScenario.node[5].nic.mac1609_4 	ReceivedUnicastPackets 	0
scalar IntersectionExampleScenario.node[5].nic.mac1609_4 	ReceivedBroadcasts 	0
scalar IntersectionExampleScenario.node[5].nic.mac1609_4 	SentPackets 	0
scalar IntersectionExampleScenario.node[5].nic.mac1609_4 	SNIRLostPackets 	0
scalar IntersectionExampleScenario.node[5].nic.mac1609_4 	RXTXLostPackets 	0
scalar IntersectionExampleScenario.node[5].nic.mac1609_4 	TotalLostPackets 	0
scalar IntersectionExampleScenario.node[5].nic.mac1609_4 	DroppedPacketsInMac 	0
scalar IntersectionExampleScenario.node[5].nic.mac1609_4 	TooLittleTime 	0
scalar IntersectionExampleScenario.node[5].nic.mac1609_4 	TimesIntoBackoff 	0
scalar IntersectionExampleScenario.node[5].nic.mac1609_4 	SlotsBackoff 	0
scalar IntersectionExampleScenario.node[5].nic.mac1609_4 	NumInternalContention 	0
scalar IntersectionExampleScenario.node[5].nic.mac1609_4 	totalBusyTime 	0
scalar IntersectionExampleScenario.node[5].veinsmobility 	startTime 	19.75
scalar IntersectionExampleScenario.node[5].veinsmobility 	totalTime 	90.25
scalar IntersectionExampleScenario.node[5].veinsmobility 	stopTime 	110.25
scalar IntersectionExampleScenario.node[5].veinsmobility 	minSpeed 	0
scalar IntersectionExampleScenario.node[5].veinsmobility 	maxSpeed 	15.875
scalar IntersectionExampleScenario.node[5].veinsmobility 	totalDistance 	546.01633439489
scalar IntersectionExampleScenario.node[5].veinsmobility 	totalCO2Emission 	180.54939930702
scalar IntersectionExampleScenario.node[6].appl 	VehicleRemoved 	0
scalar IntersectionExampleScenario.node[6].appl 	ArrivedAtDest 	1
scalar IntersectionExampleScenario.node[6].appl 	IntersectionEnterTime 	20.75
scalar IntersectionExampleScenario.node[6].appl 	IntersectionExitTime 	95.519643226813
scalar IntersectionExampleScenario.node[6].appl 	NumberOfCollisions 	0
scalar IntersectionExampleScenario.node[6].nic.phy80211p 	busyTime 	0
scalar IntersectionExampleScenario.node[6].nic.mac1609_4 	ReceivedUnicastPackets 	0
scalar IntersectionExampleScenario.node[6].nic.mac1609_4 	ReceivedBroadcasts 	0
scalar IntersectionExampleScenario.node[6].nic.mac1609_4 	SentPackets 	0
scalar IntersectionExampleScenario.node[6].nic.mac1609_4 	SNIRLostPackets 	0
scalar IntersectionExampleScenario.node[6].nic.mac1609_4 	RXTXLostPackets 	0
scalar IntersectionExampleScenario.node[6].nic.mac1609_4 	TotalLostPackets 	0
scalar IntersectionExampleScenario.node[6].nic.mac1609_4 	DroppedPacketsInMac 	0
scalar IntersectionExampleScenario.node[6].nic.mac1609_4 	TooLittleTime 	0
scalar IntersectionExampleScenario.node[6].nic.mac1609_4 	TimesIntoBackoff 	0
scalar IntersectionExampleScenario.node[6].nic.mac1609_4 	SlotsBackoff 	0
scalar IntersectionExampleScenario.node[6].nic.mac1609_4 	NumInternalContention 	0
scalar IntersectionExampleScenario.node[6].nic.mac1609_4 	totalBusyTime 	0
scalar IntersectionExampleScenario.node[6].veinsmobility 	startTime 	20.75
scalar IntersectionExampleScenario.node[6].veinsmobility 	totalTime 	91
scalar IntersectionExampleScenario.node[6].veinsmobility 	stopTime 	112
scalar IntersectionExampleScenario.node[6].veinsmobility 	minSpeed 	0
scalar IntersectionExampleScenario.node[6].veinsmobility 	maxSpeed 	15.64999961853
scalar IntersectionExampleScenario.node[6].veinsmobility 	totalDistance 	571.92294766909
scalar IntersectionExampleScenario.node[6].veinsmobility 	totalCO2Emission 	189.23675575415
scalar IntersectionExampleScenario.node[9].appl 	VehicleRemoved 	0
scalar IntersectionExampleScenario.node[9].appl 	ArrivedAtDest 	1
scalar IntersectionExampleScenario.node[9].appl 	IntersectionEnterTime 	29.75
scalar IntersectionExampleScenario.node[9].appl 	IntersectionExitTime 	97.605980597466
scalar IntersectionExampleScenario.node[9].appl 	NumberOfCollisions 	0
scalar IntersectionExampleScenario.node[9].nic.phy80211p 	busyTime 	0
scalar IntersectionExampleScenario.node[9].nic.mac1609_4 	ReceivedUnicastPackets 	0
scalar IntersectionExampleScenario.node[9].nic.mac1609_4 	ReceivedBroadcasts 	0
scalar IntersectionExampleScenario.node[9].nic.mac1609_4 	SentPackets 	0
scalar IntersectionExampleScenario.node[9].nic.mac1609_4 	SNIRLostPackets 	0
scalar IntersectionExampleScenario.node[9].nic.mac1609_4 	RXTXLostPackets 	0
scalar IntersectionExampleScenario.node[9].nic.mac1609_4 	TotalLostPackets 	0
scalar IntersectionExampleScenario.node[9].nic.mac1609_4 	DroppedPacketsInMac 	0
scalar IntersectionExampleScenario.node[9].nic.mac1609_4 	TooLittleTime 	0
scalar IntersectionExampleScenario.node[9].nic.mac1609_4 	TimesIntoBackoff 	0
scalar IntersectionExampleScenario.node[9].nic.mac1609_4 	SlotsBackoff 	0
scalar IntersectionExampleScenario.node[9].nic.mac1609_4 	NumInternalContention 	0
scalar IntersectionExampleScenario.node[9].nic.mac1609_4 	totalBusyTime 	0
scalar IntersectionExampleScenario.node[9].veinsmobility 	startTime 	29.75
scalar IntersectionExampleScenario.node[9].veinsmobility 	totalTime 	83.75
scalar IntersectionExampleScenario.node[9].veinsmobility 	stopTime 	113.75
scalar IntersectionExampleScenario.node[9].veinsmobility 	minSpeed 	0
scalar IntersectionExampleScenario.node[9].veinsmobility 	maxSpeed 	16.27499961853
scalar IntersectionExampleScenario.node[9].veinsmobility 	totalDistance 	542.95195751319
scalar IntersectionExampleScenario.node[9].veinsmobility 	totalCO2Emission 	187.38631881863
scalar IntersectionExampleScenario.node[11].appl 	VehicleRemoved 	0
scalar IntersectionExampleScenario.node[11].appl 	ArrivedAtDest 	1
scalar IntersectionExampleScenario.node[11].appl 	IntersectionEnterTime 	31
scalar IntersectionExampleScenario.node[11].appl 	IntersectionExitTime 	99.530816955783
scalar IntersectionExampleScenario.node[11].appl 	NumberOfCollisions 	0
scalar IntersectionExampleScenario.node[11].nic.phy80211p 	busyTime 	0
scalar IntersectionExampleScenario.node[11].nic.mac1609_4 	ReceivedUnicastPackets 	0
scalar IntersectionExampleScenario.node[11].nic.mac1609_4 	ReceivedBroadcasts 	0
scalar IntersectionExampleScenario.node[11].nic.mac1609_4 	SentPackets 	0
scalar IntersectionExampleScenario.node[11].nic.mac1609_4 	SNIRLostPackets 	0
scalar IntersectionExampleScenario.node[11].nic.mac1609_4 	RXTXLostPackets 	0
scalar IntersectionExampleScenario.node[11].nic.mac1609_4 	TotalLostPackets 	0
scalar IntersectionExampleScenario.node[11].nic.mac1609_4 	DroppedPacketsInMac 	0
scalar IntersectionExampleScenario.node[11].nic.mac1609_4 	TooLittleTime 	0
scalar IntersectionExampleScenario.node[11].nic.mac1609_4 	TimesIntoBackoff 	0
scalar IntersectionExampleScenario.node[11].nic.mac1609_4 	SlotsBackoff 	0
scalar IntersectionExampleScenario.node[11].nic.mac1609_4 	NumInternalContention 	0
scalar IntersectionExampleScenario.node[11].nic.mac1609_4 	totalBusyTime 	0
scalar IntersectionExampleScenario.node[11].veinsmobility 	startTime 	31
scalar IntersectionExampleScenario.node[11].veinsmobility 	totalTime 	84.25
scalar IntersectionExampleScenario.node[11].veinsmobility 	stopTime 	115.5
scalar IntersectionExampleScenario.node[11].veinsmobility 	minSpeed 	0
scalar IntersectionExampleScenario.node[11].veinsmobility 	maxSpeed 	15.984892845154
scalar IntersectionExampleScenario.node[11].veinsmobility 	totalDistance 	572.42179107666
scalar IntersectionExampleScenario.node[11].veinsmobility 	totalCO2Emission 	183.40353128607
scalar IntersectionExampleScenario.node[18].appl 	VehicleRemoved 	0
scalar IntersectionExampleScenario.node[18].appl 	ArrivedAtDest 	1
scalar IntersectionExampleScenario.node[18].appl 	IntersectionEnterTime 	45
scalar IntersectionExampleScenario.node[18].appl 	IntersectionExitTime 	102.10275461088
scalar IntersectionExampleScenario.node[18].appl 	NumberOfCollisions 	0
scalar IntersectionExampleScenario.node[18].nic.phy80211p 	busyTime 	0
scalar IntersectionExampleScenario.node[18].nic.mac1609_4 	ReceivedUnicastPackets 	0
scalar IntersectionExampleScenario.node[18].nic.mac1609_4 	ReceivedBroadcasts 	0
scalar IntersectionExampleScenario.node[18].nic.mac1609_4 	SentPackets 	0
scalar IntersectionExampleScenario.node[18].nic.mac1609_4 	SNIRLostPackets 	0
scalar IntersectionExampleScenario.node[18].nic.mac1609_4 	RXTXLostPackets 	0
scalar IntersectionExampleScenario.node[18].nic.mac1609_4 	TotalLostPackets 	0
scalar IntersectionExampleScenario.node[18].nic.mac1609_4 	DroppedPacketsInMac 	0
scalar IntersectionExampleScenario.node[18].nic.mac1609_4 	TooLittleTime 	0
scalar IntersectionExampleScenario.node[18].nic.mac1609_4 	TimesIntoBackoff 	0
scalar IntersectionExampleScenario.node[18].nic.mac1609_4 	SlotsBackoff 	0
scalar IntersectionExampleScenario.node[18].nic.mac1609_4 	NumInternalContention 	0
scalar IntersectionExampleScenario.node[18].nic.mac1609_4 	totalBusyTime 	0
scalar IntersectionExampleScenario.node[18].veinsmobility 	startTime 	45
scalar IntersectionExampleScenario.node[18].veinsmobility 	totalTime 	73.5
scalar IntersectionExampleScenario.node[18].veinsmobility 	stopTime 	118.75
scalar IntersectionExampleScenario.node[18].veinsmobility 	minSpeed 	0
scalar IntersectionExampleScenario.node[18].veinsmobility 	maxSpeed 	15.875
scalar IntersectionExampleScenario.node[18].veinsmobility 	totalDistance 	544.1058902813
scalar IntersectionExampleScenario.node[18].veinsmobility 	totalCO2Emission 	172.14699016167
scalar IntersectionExampleScenario.node[22].appl 	VehicleRemoved 	0
scalar IntersectionExampleScenario.node[22].appl 	ArrivedAtDest 	1
scalar IntersectionExampleScenario.node[22].appl 	IntersectionEnterTime 	59.25
scalar IntersectionExampleScenario.node[22].appl 	IntersectionExitTime 	104.11922824051
scalar IntersectionExampleScenario.node[22].appl 	NumberOfCollisions 	0
scalar IntersectionExampleScenario.node[22].nic.phy80211p 	busyTime 	0
scalar IntersectionExampleScenario.node[22].nic.mac1609_4 	ReceivedUnicastPackets 	0
scalar IntersectionExampleScenario.node[22].nic.mac1609_4 	ReceivedBroadcasts 	0
scalar IntersectionExampleScenario.node[22].nic.mac1609_4 	SentPackets 	0
scalar IntersectionExampleScenario.node[22].nic.mac1609_4 	SNIRLostPackets 	0
scalar IntersectionExampleScenario.node[22].nic.mac1609_4 	RXTXLostPackets 	0
scalar IntersectionExampleScenario.node[22].nic.mac1609_4 	TotalLostPackets 	0
scalar IntersectionExampleScenario.node[22].nic.mac1609_4 	DroppedPacketsInMac 	0
scalar IntersectionExampleScenario.node[22].nic.mac1609_4 	TooLittleTime 	0
scalar IntersectionExampleScenario.node[22].nic.mac1609_4 	TimesIntoBackoff 	0
scalar IntersectionExampleScenario.node[22].nic.mac1609_4 	SlotsBackoff 	0
scalar IntersectionExampleScenario.node[22].nic.mac1609_4 	NumInternalContention 	0
scalar IntersectionExampleScenario.node[22].nic.mac1609_4 	totalBusyTime 	0
scalar IntersectionExampleScenario.node[22].veinsmobility 	startTime 	59.25
scalar IntersectionExampleScenario.node[22].veinsmobility 	totalTime 	60.75
scalar IntersectionExampleScenario.node[22].veinsmobility 	stopTime 	120.25
scalar IntersectionExampleScenario.node[22].veinsmobility 	minSpeed 	0.034338228404522
scalar IntersectionExampleScenario.node[22].veinsmobility 	maxSpeed 	16.27499961853
scalar IntersectionExampleScenario.node[22].veinsmobility 	totalDistance 	543.53303742506
scalar IntersectionExampleScenario.node[22].veinsmobility 	totalCO2Emission 	159.16023218096
scalar IntersectionExampleScenario.node[23].appl 	VehicleRemoved 	0
scalar IntersectionExampleScenario.node[23].appl 	ArrivedAtDest 	1
scalar IntersectionExampleScenario.node[23].appl 	IntersectionEnterTime 	62.5
scalar IntersectionExampleScenario.node[23].appl 	IntersectionExitTime 	106.00143990215
scalar IntersectionExampleScenario.node[23].appl 	NumberOfCollisions 	0
scalar IntersectionExampleScenario.node[23].nic.phy80211p 	busyTime 	0
scalar IntersectionExampleScenario.node[23].nic.mac1609_4 	ReceivedUnicastPackets 	0
scalar IntersectionExampleScenario.node[23].nic.mac1609_4 	ReceivedBroadcasts 	0
scalar IntersectionExampleScenario.node[23].nic.mac1609_4 	SentPackets 	0
scalar IntersectionExampleScenario.node[23].nic.mac1609_4 	SNIRLostPackets 	0
scalar IntersectionExampleScenario.node[23].nic.mac1609_4 	RXTXLostPackets 	0
scalar IntersectionExampleScenario.node[23].nic.mac1609_4 	TotalLostPackets 	0
scalar IntersectionExampleScenario.node[23].nic.mac1609_4 	DroppedPacketsInMac 	0
scalar IntersectionExampleScenario.node[23].nic.mac1609_4 	TooLittleTime 	0
scalar IntersectionExampleScenario.node[23].nic.mac1609_4 	TimesIntoBackoff 	0
scalar IntersectionExampleScenario.node[23].nic.mac1609_4 	SlotsBackoff 	0
scalar IntersectionExampleScenario.node[23].nic.mac1609_4 	NumInternalContention 	0
scalar IntersectionExampleScenario.node[23].nic.mac1609_4 	totalBusyTime 	0
scalar IntersectionExampleScenario.node[23].veinsmobility 	startTime 	62.5
scalar IntersectionExampleScenario.node[23].veinsmobility 	totalTime 	60
scalar IntersectionExampleScenario.node[23].veinsmobility 	stopTime 	122.75
scalar IntersectionExampleScenario.node[23].veinsmobility 	minSpeed 	0
scalar IntersectionExampleScenario.node[23].veinsmobility 	maxSpeed 	15.375
scalar IntersectionExampleScenario.node[23].veinsmobility 	totalDistance 	561.55112328994
scalar IntersectionExampleScenario.node[23].veinsmobility 	totalCO2Emission 	156.21374674543
scalar IntersectionExampleScenario.node[26].appl 	VehicleRemoved 	0
scalar IntersectionExampleScenario.node[26].appl 	ArrivedAtDest 	1
scalar IntersectionExampleScenario.node[26].appl 	IntersectionEnterTime 	67.75
scalar IntersectionExampleScenario.node[26].appl 	IntersectionExitTime 	107.25411119158
scalar IntersectionExampleScenario.node[26].appl 	NumberOfCollisions 	0
scalar IntersectionExampleScenario.node[26].nic.phy80211p 	busyTime 	0
scalar IntersectionExampleScenario.node[26].nic.mac1609_4 	ReceivedUnicastPackets 	0
scalar IntersectionExampleScenario.node[26].nic.mac1609_4 	ReceivedBroadcasts 	0
scalar IntersectionExampleScenario.node[26].nic.mac1609_4 	SentPackets 	0
scalar IntersectionExampleScenario.node[26].nic.mac1609_4 	SNIRLostPackets 	0
scalar IntersectionExampleScenario.node[26].nic.mac1609_4 	RXTXLostPackets 	0
scalar IntersectionExampleScenario.node[26].nic.mac1609_4 	TotalLostPackets 	0
scalar IntersectionExampleScenario.node[26].nic.mac1609_4 	DroppedPacketsInMac 	0
scalar IntersectionExampleScenario.node[26].nic.mac1609_4 	TooLittleTime 	0
scalar IntersectionExampleScenario.node[26].nic.mac1609_4 	TimesIntoBackoff 	0
scalar IntersectionExampleScenario.node[26].nic.mac1609_4 	SlotsBackoff 	0
scalar IntersectionExampleScenario.node[26].nic.mac1609_4 	NumInternalContention 	0
scalar IntersectionExampleScenario.node[26].nic.mac1609_4 	totalBusyTime 	0
scalar IntersectionExampleScenario.node[26].veinsmobility 	startTime 	67.75
scalar IntersectionExampleScenario.node[26].veinsmobility 	totalTime 	54.75
scalar IntersectionExampleScenario.node[26].veinsmobility 	stopTime 	122.75
scalar IntersectionExampleScenario.node[26].veinsmobility 	minSpeed 	0
scalar IntersectionExampleScenario.node[26].veinsmobility 	maxSpeed 	16.125
scalar IntersectionExampleScenario.node[26].veinsmobility 	totalDistance 	527.85130310059
scalar IntersectionExampleScenario.node[26].veinsmobility 	totalCO2Emission 	153.28750702294
scalar IntersectionExampleScenario.node[25].appl 	VehicleRemoved 	0
scalar IntersectionExampleScenario.node[25].appl 	ArrivedAtDest 	1
scalar IntersectionExampleScenario.node[25].appl 	IntersectionEnterTime 	66.5
scalar IntersectionExampleScenario.node[25].appl 	IntersectionExitTime 	110.10090264917
scalar IntersectionExampleScenario.node[25].appl 	NumberOfCollisions 	0
scalar IntersectionExampleScenario.node[25].nic.phy80211p 	busyTime 	0
scalar IntersectionExampleScenario.node[25].nic.mac1609_4 	ReceivedUnicastPackets 	0
scalar IntersectionExampleScenario.node[25].nic.mac1609_4 	ReceivedBroadcasts 	0
scalar IntersectionExampleScenario.node[25].nic.mac1609_4 	SentPackets 	0
scalar IntersectionExampleScenario.node[25].nic.mac1609_4 	SNIRLostPackets 	0
scalar IntersectionExampleScenario.node[25].nic.mac1609_4 	RXTXLostPackets 	0
scalar IntersectionExampleScenario.node[25].nic.mac1609_4 	TotalLostPackets 	0
scalar IntersectionExampleScenario.node[25].nic.mac1609_4 	DroppedPacketsInMac 	0
scalar IntersectionExampleScenario.node[25].nic.mac1609_4 	TooLittleTime 	0
scalar IntersectionExampleScenario.node[25].nic.mac1609_4 	TimesIntoBackoff 	0
scalar IntersectionExampleScenario.node[25].nic.mac1609_4 	SlotsBackoff 	0
scalar IntersectionExampleScenario.node[25].nic.mac1609_4 	NumInternalContention 	0
scalar IntersectionExampleScenario.node[25].nic.mac1609_4 	totalBusyTime 	0
scalar IntersectionExampleScenario.node[25].veinsmobility 	startTime 	66.5
scalar IntersectionExampleScenario.node[25].veinsmobility 	totalTime 	60.25
scalar IntersectionExampleScenario.node[25].veinsmobility 	stopTime 	127
scalar IntersectionExampleScenario.node[25].veinsmobility 	minSpeed 	0
scalar IntersectionExampleScenario.node[25].veinsmobility 	maxSpeed 	15.704758644104
scalar IntersectionExampleScenario.node[25].veinsmobility 	totalDistance 	555.78079711055
scalar IntersectionExampleScenario.node[25].veinsmobility 	totalCO2Emission 	168.57028116268
scalar IntersectionExampleScenario.node[27].appl 	VehicleRemoved 	0
scalar IntersectionExampleScenario.node[27].appl 	ArrivedAtDest 	1
scalar IntersectionExampleScenario.node[27].appl 	IntersectionEnterTime 	68.75
scalar IntersectionExampleScenario.node[27].appl 	IntersectionExitTime 	112.11539802811
scalar IntersectionExampleScenario.node[27].appl 	NumberOfCollisions 	0
scalar IntersectionExampleScenario.node[27].nic.phy80211p 	busyTime 	0
scalar IntersectionExampleScenario.node[27].nic.mac1609_4 	ReceivedUnicastPackets 	0
scalar IntersectionExampleScenario.node[27].nic.mac1609_4 	ReceivedBroadcasts 	0
scalar IntersectionExampleScenario.node[27].nic.mac1609_4 	SentPackets 	0
scalar IntersectionExampleScenario.node[27].nic.mac1609_4 	SNIRLostPackets 	0
scalar IntersectionExampleScenario.node[27].nic.mac1609_4 	RXTXLostPackets 	0
scalar IntersectionExampleScenario.node[27].nic.mac1609_4 	TotalLostPackets 	0
scalar IntersectionExampleScenario.node[27].nic.mac1609_4 	DroppedPacketsInMac 	0
scalar IntersectionExampleScenario.node[27].nic.mac1609_4 	TooLittleTime 	0
scalar IntersectionExampleScenario.node[27].nic.mac1609_4 	TimesIntoBackoff 	0
scalar IntersectionExampleScenario.node[27].nic.mac1609_4 	SlotsBackoff 	0
scalar IntersectionExampleScenario.node[27].nic.mac1609_4 	NumInternalContention 	0
scalar IntersectionExampleScenario.node[27].nic.mac1609_4 	totalBusyTime 	0
scalar IntersectionExampleScenario.node[27].veinsmobility 	startTime 	68.75
scalar IntersectionExampleScenario.node[27].veinsmobility 	totalTime 	59.5
scalar IntersectionExampleScenario.node[27].veinsmobility 	stopTime 	128.5
scalar IntersectionExampleScenario.node[27].veinsmobility 	minSpeed 	0
scalar IntersectionExampleScenario.node[27].veinsmobility 	maxSpeed 	15.5
scalar IntersectionExampleScenario.node[27].veinsmobility 	totalDistance 	576.7024230957
scalar IntersectionExampleScenario.node[27].veinsmobility 	totalCO2Emission 	156.9942080902
scalar IntersectionExampleScenario.node[28].appl 	VehicleRemoved 	0
scalar IntersectionExampleScenario.node[28].appl 	ArrivedAtDest 	1
scalar IntersectionExampleScenario.node[28].appl 	IntersectionEnterTime 	73.25
scalar IntersectionExampleScenario.node[28].appl 	IntersectionExitTime 	114.50584337849
scalar IntersectionExampleScenario.node[28].appl 	NumberOfCollisions 	0
scalar IntersectionExampleScenario.node[28].nic.phy80211p 	busyTime 	0
scalar IntersectionExampleScenario.node[28].nic.mac1609_4 	ReceivedUnicastPackets 	0
scalar IntersectionExampleScenario.node[28].nic.mac1609_4 	ReceivedBroadcasts 	0
scalar IntersectionExampleScenario.node[28].nic.mac1609_4 	SentPackets 	0
scalar IntersectionExampleScenario.node[28].nic.mac1609_4 	SNIRLostPackets 	0
scalar IntersectionExampleScenario.node[28].nic.mac1609_4 	RXTXLostPackets 	0
scalar IntersectionExampleScenario.node[28].nic.mac1609_4 	TotalLostPackets 	0
scalar IntersectionExampleScenario.node[28].nic.mac1609_4 	DroppedPacketsInMac 	0
scalar IntersectionExampleScenario.node[28].nic.mac1609_4 	TooLittleTime 	0
scalar IntersectionExampleScenario.node[28].nic.mac1609_4 	TimesIntoBackoff 	0
scalar IntersectionExampleScenario.node[28].nic.mac1609_4 	SlotsBackoff 	0
scalar IntersectionExampleScenario.node[28].nic.mac1609_4 	NumInternalContention 	0
scalar IntersectionExampleScenario.node[28].nic.mac1609_4 	totalBusyTime 	0
scalar IntersectionExampleScenario.node[28].veinsmobility 	startTime 	73.25
scalar IntersectionExampleScenario.node[28].veinsmobility 	totalTime 	57.25
scalar IntersectionExampleScenario.node[28].veinsmobility 	stopTime 	130.75
scalar IntersectionExampleScenario.node[28].veinsmobility 	minSpeed 	-0.47107291221619
scalar IntersectionExampleScenario.node[28].veinsmobility 	maxSpeed 	16
scalar IntersectionExampleScenario.node[28].veinsmobility 	totalDistance 	565.86863689282
scalar IntersectionExampleScenario.node[28].veinsmobility 	totalCO2Emission 	163.20014923963
scalar IntersectionExampleScenario.node[31].appl 	VehicleRemoved 	0
scalar IntersectionExampleScenario.node[31].appl 	ArrivedAtDest 	1
scalar IntersectionExampleScenario.node[31].appl 	IntersectionEnterTime 	79.75
scalar IntersectionExampleScenario.node[31].appl 	IntersectionExitTime 	116.2595262886
scalar IntersectionExampleScenario.node[31].appl 	NumberOfCollisions 	0
scalar IntersectionExampleScenario.node[31].nic.phy80211p 	busyTime 	0
scalar IntersectionExampleScenario.node[31].nic.mac1609_4 	ReceivedUnicastPackets 	0
scalar IntersectionExampleScenario.node[31].nic.mac1609_4 	ReceivedBroadcasts 	0
scalar IntersectionExampleScenario.node[31].nic.mac1609_4 	SentPackets 	0
scalar IntersectionExampleScenario.node[31].nic.mac1609_4 	SNIRLostPackets 	0
scalar IntersectionExampleScenario.node[31].nic.mac1609_4 	RXTXLostPackets 	0
scalar IntersectionExampleScenario.node[31].nic.mac1609_4 	TotalLostPackets 	0
scalar IntersectionExampleScenario.node[31].nic.mac1609_4 	DroppedPacketsInMac 	0
scalar IntersectionExampleScenario.node[31].nic.mac1609_4 	TooLittleTime 	0
scalar IntersectionExampleScenario.node[31].nic.mac1609_4 	TimesIntoBackoff 	0
scalar IntersectionExampleScenario.node[31].nic.mac1609_4 	SlotsBackoff 	0
scalar IntersectionExampleScenario.node[31].nic.mac1609_4 	NumInternalContention 	0
scalar IntersectionExampleScenario.node[31].nic.mac1609_4 	totalBusyTime 	0
scalar IntersectionExampleScenario.node[31].veinsmobility 	startTime 	79.75
scalar IntersectionExampleScenario.node[31].veinsmobility 	totalTime 	52.5
scalar IntersectionExampleScenario.node[31].veinsmobility 	stopTime 	132.5
scalar IntersectionExampleScenario.node[31].veinsmobility 	minSpeed 	1.6936635971069
scalar IntersectionExampleScenario.node[31].veinsmobility 	maxSpeed 	15.5
scalar IntersectionExampleScenario.node[31].veinsmobility 	totalDistance 	550.87314605713
scalar IntersectionExampleScenario.node[31].veinsmobility 	totalCO2Emission 	147.15529969547
scalar IntersectionExampleScenario.node[32].appl 	VehicleRemoved 	0
scalar IntersectionExampleScenario.node[32].appl 	ArrivedAtDest 	1
scalar IntersectionExampleScenario.node[32].appl 	IntersectionEnterTime 	82.25
scalar IntersectionExampleScenario.node[32].appl 	IntersectionExitTime 	118.08423250788
scalar IntersectionExampleScenario.node[32].appl 	NumberOfCollisions 	0
scalar IntersectionExampleScenario.node[32].nic.phy80211p 	busyTime 	0
scalar IntersectionExampleScenario.node[32].nic.mac1609_4 	ReceivedUnicastPackets 	0
scalar IntersectionExampleScenario.node[32].nic.mac1609_4 	ReceivedBroadcasts 	0
scalar IntersectionExampleScenario.node[32].nic.mac1609_4 	SentPackets 	0
scalar IntersectionExampleScenario.node[32].nic.mac1609_4 	SNIRLostPackets 	0
scalar IntersectionExampleScenario.node[32].nic.mac1609_4 	RXTXLostPackets 	0
scalar IntersectionExampleScenario.node[32].nic.mac1609_4 	TotalLostPackets 	0
scalar IntersectionExampleScenario.node[32].nic.mac1609_4 	DroppedPacketsInMac 	0
scalar IntersectionExampleScenario.node[32].nic.mac1609_4 	TooLittleTime 	0
scalar IntersectionExampleScenario.node[32].nic.mac1609_4 	TimesIntoBackoff 	0
scalar IntersectionExampleScenario.node[32].nic.mac1609_4 	SlotsBackoff 	0
scalar IntersectionExampleScenario.node[32].nic.mac1609_4 	NumInternalContention 	0
scalar IntersectionExampleScenario.node[32].nic.mac1609_4 	totalBusyTime 	0
scalar IntersectionExampleScenario.node[32].veinsmobility 	startTime 	82.25
scalar IntersectionExampleScenario.node[32].veinsmobility 	totalTime 	51.75
scalar IntersectionExampleScenario.node[32].veinsmobility 	stopTime 	134.25
scalar IntersectionExampleScenario.node[32].veinsmobility 	minSpeed 	1.6109354496002
scalar IntersectionExampleScenario.node[32].veinsmobility 	maxSpeed 	15.335498809814
scalar IntersectionExampleScenario.node[32].veinsmobility 	totalDistance 	569.02909851074
scalar IntersectionExampleScenario.node[32].veinsmobility 	totalCO2Emission 	146.49376983448
scalar IntersectionExampleScenario.node[35].appl 	VehicleRemoved 	0
scalar IntersectionExampleScenario.node[35].appl 	ArrivedAtDest 	1
scalar IntersectionExampleScenario.node[35].appl 	IntersectionEnterTime 	92.75
scalar IntersectionExampleScenario.node[35].appl 	IntersectionExitTime 	119.82729920192
scalar IntersectionExampleScenario.node[35].appl 	NumberOfCollisions 	0
scalar IntersectionExampleScenario.node[35].nic.phy80211p 	busyTime 	0
scalar IntersectionExampleScenario.node[35].nic.mac1609_4 	ReceivedUnicastPackets 	0
scalar IntersectionExampleScenario.node[35].nic.mac1609_4 	ReceivedBroadcasts 	0
scalar IntersectionExampleScenario.node[35].nic.mac1609_4 	SentPackets 	0
scalar IntersectionExampleScenario.node[35].nic.mac1609_4 	SNIRLostPackets 	0
scalar IntersectionExampleScenario.node[35].nic.mac1609_4 	RXTXLostPackets 	0
scalar IntersectionExampleScenario.node[35].nic.mac1609_4 	TotalLostPackets 	0
scalar IntersectionExampleScenario.node[35].nic.mac1609_4 	DroppedPacketsInMac 	0
scalar IntersectionExampleScenario.node[35].nic.mac1609_4 	TooLittleTime 	0
scalar IntersectionExampleScenario.node[35].nic.mac1609_4 	TimesIntoBackoff 	0
scalar IntersectionExampleScenario.node[35].nic.mac1609_4 	SlotsBackoff 	0
scalar IntersectionExampleScenario.node[35].nic.mac1609_4 	NumInternalContention 	0
scalar IntersectionExampleScenario.node[35].nic.mac1609_4 	totalBusyTime 	0
scalar IntersectionExampleScenario.node[35].veinsmobility 	startTime 	92.75
scalar IntersectionExampleScenario.node[35].veinsmobility 	totalTime 	42.5
scalar IntersectionExampleScenario.node[35].veinsmobility 	stopTime 	135.5
scalar IntersectionExampleScenario.node[35].veinsmobility 	minSpeed 	5.6500000953674
scalar IntersectionExampleScenario.node[35].veinsmobility 	maxSpeed 	16.27499961853
scalar IntersectionExampleScenario.node[35].veinsmobility 	totalDistance 	554.16611480713
scalar IntersectionExampleScenario.node[35].veinsmobility 	totalCO2Emission 	140.21460388931
scalar IntersectionExampleScenario.node[40].appl 	VehicleRemoved 	0
scalar IntersectionExampleScenario.node[40].appl 	ArrivedAtDest 	1
scalar IntersectionExampleScenario.node[40].appl 	IntersectionEnterTime 	101.5
scalar IntersectionExampleScenario.node[40].appl 	IntersectionExitTime 	124.53385243044
scalar IntersectionExampleScenario.node[40].appl 	NumberOfCollisions 	0
scalar IntersectionExampleScenario.node[40].nic.phy80211p 	busyTime 	0
scalar IntersectionExampleScenario.node[40].nic.mac1609_4 	ReceivedUnicastPackets 	0
scalar IntersectionExampleScenario.node[40].nic.mac1609_4 	ReceivedBroadcasts 	0
scalar IntersectionExampleScenario.node[40].nic.mac1609_4 	SentPackets 	0
scalar IntersectionExampleScenario.node[40].nic.mac1609_4 	SNIRLostPackets 	0
scalar IntersectionExampleScenario.node[40].nic.mac1609_4 	RXTXLostPackets 	0
scalar IntersectionExampleScenario.node[40].nic.mac1609_4 	TotalLostPackets 	0
scalar IntersectionExampleScenario.node[40].nic.mac1609_4 	DroppedPacketsInMac 	0
scalar IntersectionExampleScenario.node[40].nic.mac1609_4 	TooLittleTime 	0
scalar IntersectionExampleScenario.node[40].nic.mac1609_4 	TimesIntoBackoff 	0
scalar IntersectionExampleScenario.node[40].nic.mac1609_4 	SlotsBackoff 	0
scalar IntersectionExampleScenario.node[40].nic.mac1609_4 	NumInternalContention 	0
scalar IntersectionExampleScenario.node[40].nic.mac1609_4 	totalBusyTime 	0
scalar IntersectionExampleScenario.node[40].veinsmobility 	startTime 	101.5
scalar IntersectionExampleScenario.node[40].veinsmobility 	totalTime 	39.25
scalar IntersectionExampleScenario.node[40].veinsmobility 	stopTime 	141
scalar IntersectionExampleScenario.node[40].veinsmobility 	minSpeed 	5.6500000953674
scalar IntersectionExampleScenario.node[40].veinsmobility 	maxSpeed 	15.5
scalar IntersectionExampleScenario.node[40].veinsmobility 	totalDistance 	552.32010650635
scalar IntersectionExampleScenario.node[40].veinsmobility 	totalCO2Emission 	116.07989268112
scalar IntersectionExampleScenario.node[8].appl 	VehicleRemoved 	0
scalar IntersectionExampleScenario.node[8].appl 	ArrivedAtDest 	1
scalar IntersectionExampleScenario.node[8].appl 	IntersectionEnterTime 	27.25
scalar IntersectionExampleScenario.node[8].appl 	IntersectionExitTime 	129.33156965356
scalar IntersectionExampleScenario.node[8].appl 	NumberOfCollisions 	0
scalar IntersectionExampleScenario.node[8].nic.phy80211p 	busyTime 	0
scalar IntersectionExampleScenario.node[8].nic.mac1609_4 	ReceivedUnicastPackets 	0
scalar IntersectionExampleScenario.node[8].nic.mac1609_4 	ReceivedBroadcasts 	0
scalar IntersectionExampleScenario.node[8].nic.mac1609_4 	SentPackets 	0
scalar IntersectionExampleScenario.node[8].nic.mac1609_4 	SNIRLostPackets 	0
scalar IntersectionExampleScenario.node[8].nic.mac1609_4 	RXTXLostPackets 	0
scalar IntersectionExampleScenario.node[8].nic.mac1609_4 	TotalLostPackets 	0
scalar IntersectionExampleScenario.node[8].nic.mac1609_4 	DroppedPacketsInMac 	0
scalar IntersectionExampleScenario.node[8].nic.mac1609_4 	TooLittleTime 	0
scalar IntersectionExampleScenario.node[8].nic.mac1609_4 	TimesIntoBackoff 	0
scalar IntersectionExampleScenario.node[8].nic.mac1609_4 	SlotsBackoff 	0
scalar IntersectionExampleScenario.node[8].nic.mac1609_4 	NumInternalContention 	0
scalar IntersectionExampleScenario.node[8].nic.mac1609_4 	totalBusyTime 	0
scalar IntersectionExampleScenario.node[8].veinsmobility 	startTime 	27.25
scalar IntersectionExampleScenario.node[8].veinsmobility 	totalTime 	118
scalar IntersectionExampleScenario.node[8].veinsmobility 	stopTime 	145.5
scalar IntersectionExampleScenario.node[8].veinsmobility 	minSpeed 	0
scalar IntersectionExampleScenario.node[8].veinsmobility 	maxSpeed 	15.64999961853
scalar IntersectionExampleScenario.node[8].veinsmobility 	totalDistance 	554.18717956543
scalar IntersectionExampleScenario.node[8].veinsmobility 	totalCO2Emission 	211.0670885274
scalar IntersectionExampleScenario.node[29].appl 	VehicleRemoved 	0
scalar IntersectionExampleScenario.node[29].appl 	ArrivedAtDest 	1
scalar IntersectionExampleScenario.node[29].appl 	IntersectionEnterTime 	73.75
scalar IntersectionExampleScenario.node[29].appl 	IntersectionExitTime 	128.54922826227
scalar IntersectionExampleScenario.node[29].appl 	NumberOfCollisions 	0
scalar IntersectionExampleScenario.node[29].nic.phy80211p 	busyTime 	0
scalar IntersectionExampleScenario.node[29].nic.mac1609_4 	ReceivedUnicastPackets 	0
scalar IntersectionExampleScenario.node[29].nic.mac1609_4 	ReceivedBroadcasts 	0
scalar IntersectionExampleScenario.node[29].nic.mac1609_4 	SentPackets 	0
scalar IntersectionExampleScenario.node[29].nic.mac1609_4 	SNIRLostPackets 	0
scalar IntersectionExampleScenario.node[29].nic.mac1609_4 	RXTXLostPackets 	0
scalar IntersectionExampleScenario.node[29].nic.mac1609_4 	TotalLostPackets 	0
scalar IntersectionExampleScenario.node[29].nic.mac1609_4 	DroppedPacketsInMac 	0
scalar IntersectionExampleScenario.node[29].nic.mac1609_4 	TooLittleTime 	0
scalar IntersectionExampleScenario.node[29].nic.mac1609_4 	TimesIntoBackoff 	0
scalar IntersectionExampleScenario.node[29].nic.mac1609_4 	SlotsBackoff 	0
scalar IntersectionExampleScenario.node[29].nic.mac1609_4 	NumInternalContention 	0
scalar IntersectionExampleScenario.node[29].nic.mac1609_4 	totalBusyTime 	0
scalar IntersectionExampleScenario.node[29].veinsmobility 	startTime 	73.75
scalar IntersectionExampleScenario.node[29].veinsmobility 	totalTime 	71.5
scalar IntersectionExampleScenario.node[29].veinsmobility 	stopTime 	145.5
scalar IntersectionExampleScenario.node[29].veinsmobility 	minSpeed 	0
scalar IntersectionExampleScenario.node[29].veinsmobility 	maxSpeed 	15.64999961853
scalar IntersectionExampleScenario.node[29].veinsmobility 	totalDistance 	545.02560330779
scalar IntersectionExampleScenario.node[29].veinsmobility 	totalCO2Emission 	163.0917535598
scalar IntersectionExampleScenario.node[33].appl 	VehicleRemoved 	0
scalar IntersectionExampleScenario.node[33].appl 	ArrivedAtDest 	1
scalar IntersectionExampleScenario.node[33].appl 	IntersectionEnterTime 	82.75
scalar IntersectionExampleScenario.node[33].appl 	IntersectionExitTime 	130.3291784719
scalar IntersectionExampleScenario.node[33].appl 	NumberOfCollisions 	0
scalar IntersectionExampleScenario.node[33].nic.phy80211p 	busyTime 	0
scalar IntersectionExampleScenario.node[33].nic.mac1609_4 	ReceivedUnicastPackets 	0
scalar IntersectionExampleScenario.node[33].nic.mac1609_4 	ReceivedBroadcasts 	0
scalar IntersectionExampleScenario.node[33].nic.mac1609_4 	SentPackets 	0
scalar IntersectionExampleScenario.node[33].nic.mac1609_4 	SNIRLostPackets 	0
scalar IntersectionExampleScenario.node[33].nic.mac1609_4 	RXTXLostPackets 	0
scalar IntersectionExampleScenario.node[33].nic.mac1609_4 	TotalLostPackets 	0
scalar IntersectionExampleScenario.node[33].nic.mac1609_4 	DroppedPacketsInMac 	0
scalar IntersectionExampleScenario.node[33].nic.mac1609_4 	TooLittleTime 	0
scalar IntersectionExampleScenario.node[33].nic.mac1609_4 	TimesIntoBackoff 	0
scalar IntersectionExampleScenario.node[33].nic.mac1609_4 	SlotsBackoff 	0
scalar IntersectionExampleScenario.node[33].nic.mac1609_4 	NumInternalContention 	0
scalar IntersectionExampleScenario.node[33].nic.mac1609_4 	totalBusyTime 	0
scalar IntersectionExampleScenario.node[33].veinsmobility 	startTime 	82.75
scalar IntersectionExampleScenario.node[33].veinsmobility 	totalTime 	63.5
scalar IntersectionExampleScenario.node[33].veinsmobility 	stopTime 	146.5
scalar IntersectionExampleScenario.node[33].veinsmobility 	minSpeed 	0
scalar IntersectionExampleScenario.node[33].veinsmobility 	maxSpeed 	16
scalar IntersectionExampleScenario.node[33].veinsmobility 	totalDistance 	550.3653119803
scalar IntersectionExampleScenario.node[33].veinsmobility 	totalCO2Emission 	156.40230848093
scalar IntersectionExampleScenario.node[10].appl 	VehicleRemoved 	0
scalar IntersectionExampleScenario.node[10].appl 	ArrivedAtDest 	1
scalar IntersectionExampleScenario.node[10].appl 	IntersectionEnterTime 	29.75
scalar IntersectionExampleScenario.node[10].appl 	IntersectionExitTime 	131.56201682988
scalar IntersectionExampleScenario.node[10].appl 	NumberOfCollisions 	0
scalar IntersectionExampleScenario.node[10].nic.phy80211p 	busyTime 	0
scalar IntersectionExampleScenario.node[10].nic.mac1609_4 	ReceivedUnicastPackets 	0
scalar IntersectionExampleScenario.node[10].nic.mac1609_4 	ReceivedBroadcasts 	0
scalar IntersectionExampleScenario.node[10].nic.mac1609_4 	SentPackets 	0
scalar IntersectionExampleScenario.node[10].nic.mac1609_4 	SNIRLostPackets 	0
scalar IntersectionExampleScenario.node[10].nic.mac1609_4 	RXTXLostPackets 	0
scalar IntersectionExampleScenario.node[10].nic.mac1609_4 	TotalLostPackets 	0
scalar IntersectionExampleScenario.node[10].nic.mac1609_4 	DroppedPacketsInMac 	0
scalar IntersectionExampleScenario.node[10].nic.mac1609_4 	TooLittleTime 	0
scalar IntersectionExampleScenario.node[10].nic.mac1609_4 	TimesIntoBackoff 	0
scalar IntersectionExampleScenario.node[10].nic.mac1609_4 	SlotsBackoff 	0
scalar IntersectionExampleScenario.node[10].nic.mac1609_4 	NumInternalContention 	0
scalar IntersectionExampleScenario.node[10].nic.mac1609_4 	totalBusyTime 	0
scalar IntersectionExampleScenario.node[10].veinsmobility 	startTime 	29.75
scalar IntersectionExampleScenario.node[10].veinsmobility 	totalTime 	118
scalar IntersectionExampleScenario.node[10].veinsmobility 	stopTime 	148
scalar IntersectionExampleScenario.node[10].veinsmobility 	minSpeed 	0
scalar IntersectionExampleScenario.node[10].veinsmobility 	maxSpeed 	15.328872680664
scalar IntersectionExampleScenario.node[10].veinsmobility 	totalDistance 	569.43916320801
scalar IntersectionExampleScenario.node[10].veinsmobility 	totalCO2Emission 	209.00948554931
scalar IntersectionExampleScenario.node[34].appl 	VehicleRemoved 	0
scalar IntersectionExampleScenario.node[34].appl 	ArrivedAtDest 	1
scalar IntersectionExampleScenario.node[34].appl 	IntersectionEnterTime 	90.75
scalar IntersectionExampleScenario.node[34].appl 	IntersectionExitTime 	132.60653539101
scalar IntersectionExampleScenario.node[34].appl 	NumberOfCollisions 	0
scalar IntersectionExampleScenario.node[34].nic.phy80211p 	busyTime 	0
scalar IntersectionExampleScenario.node[34].nic.mac1609_4 	ReceivedUnicastPackets 	0
scalar IntersectionExampleScenario.node[34].nic.mac1609_4 	ReceivedBroadcasts 	0
scalar IntersectionExampleScenario.node[34].nic.mac1609_4 	SentPackets 	0
scalar IntersectionExampleScenario.node[34].nic.mac1609_4 	SNIRLostPackets 	0
scalar IntersectionExampleScenario.node[34].nic.mac1609_4 	RXTXLostPackets 	0
scalar IntersectionExampleScenario.node[34].nic.mac1609_4 	TotalLostPackets 	0
scalar IntersectionExampleScenario.node[34].nic.mac1609_4 	DroppedPacketsInMac 	0
scalar IntersectionExampleScenario.node[34].nic.mac1609_4 	TooLittleTime 	0
scalar IntersectionExampleScenario.node[34].nic.mac1609_4 	TimesIntoBackoff 	0
scalar IntersectionExampleScenario.node[34].nic.mac1609_4 	SlotsBackoff 	0
scalar IntersectionExampleScenario.node[34].nic.mac1609_4 	NumInternalContention 	0
scalar IntersectionExampleScenario.node[34].nic.mac1609_4 	totalBusyTime 	0
scalar IntersectionExampleScenario.node[34].veinsmobility 	startTime 	90.75
scalar IntersectionExampleScenario.node[34].veinsmobility 	totalTime 	57.25
scalar IntersectionExampleScenario.node[34].veinsmobility 	stopTime 	148.25
scalar IntersectionExampleScenario.node[34].veinsmobility 	minSpeed 	0
scalar IntersectionExampleScenario.node[34].veinsmobility 	maxSpeed 	16.27499961853
scalar IntersectionExampleScenario.node[34].veinsmobility 	totalDistance 	554.58847808838
scalar IntersectionExampleScenario.node[34].veinsmobility 	totalCO2Emission 	153.03951933646
scalar IntersectionExampleScenario.node[14].appl 	VehicleRemoved 	0
scalar IntersectionExampleScenario.node[14].appl 	ArrivedAtDest 	1
scalar IntersectionExampleScenario.node[14].appl 	IntersectionEnterTime 	35.25
scalar IntersectionExampleScenario.node[14].appl 	IntersectionExitTime 	133.3170506295
scalar IntersectionExampleScenario.node[14].appl 	NumberOfCollisions 	0
scalar IntersectionExampleScenario.node[14].nic.phy80211p 	busyTime 	0
scalar IntersectionExampleScenario.node[14].nic.mac1609_4 	ReceivedUnicastPackets 	0
scalar IntersectionExampleScenario.node[14].nic.mac1609_4 	ReceivedBroadcasts 	0
scalar IntersectionExampleScenario.node[14].nic.mac1609_4 	SentPackets 	0
scalar IntersectionExampleScenario.node[14].nic.mac1609_4 	SNIRLostPackets 	0
scalar IntersectionExampleScenario.node[14].nic.mac1609_4 	RXTXLostPackets 	0
scalar IntersectionExampleScenario.node[14].nic.mac1609_4 	TotalLostPackets 	0
scalar IntersectionExampleScenario.node[14].nic.mac1609_4 	DroppedPacketsInMac 	0
scalar IntersectionExampleScenario.node[14].nic.mac1609_4 	TooLittleTime 	0
scalar IntersectionExampleScenario.node[14].nic.mac1609_4 	TimesIntoBackoff 	0
scalar IntersectionExampleScenario.node[14].nic.mac1609_4 	SlotsBackoff 	0
scalar IntersectionExampleScenario.node[14].nic.mac1609_4 	NumInternalContention 	0
scalar IntersectionExampleScenario.node[14].nic.mac1609_4 	totalBusyTime 	0
scalar IntersectionExampleScenario.node[14].veinsmobility 	startTime 	35.25
scalar IntersectionExampleScenario.node[14].veinsmobility 	totalTime 	113.5
scalar IntersectionExampleScenario.node[14].veinsmobility 	stopTime 	149
scalar IntersectionExampleScenario.node[14].veinsmobility 	minSpeed 	0
scalar IntersectionExampleScenario.node[14].veinsmobility 	maxSpeed 	16.343717575073
scalar IntersectionExampleScenario.node[14].veinsmobility 	totalDistance 	530.89074707031
scalar IntersectionExampleScenario.node[14].veinsmobility 	totalCO2Emission 	214.15934462862
scalar IntersectionExampleScenario.node[38].appl 	VehicleRemoved 	0
scalar IntersectionExampleScenario.node[38].appl 	ArrivedAtDest 	1
scalar IntersectionExampleScenario.node[38].appl 	IntersectionEnterTime 	97.75
scalar IntersectionExampleScenario.node[38].appl 	IntersectionExitTime 	135.01297549496
scalar IntersectionExampleScenario.node[38].appl 	NumberOfCollisions 	0
scalar IntersectionExampleScenario.node[38].nic.phy80211p 	busyTime 	0
scalar IntersectionExampleScenario.node[38].nic.mac1609_4 	ReceivedUnicastPackets 	0
scalar IntersectionExampleScenario.node[38].nic.mac1609_4 	ReceivedBroadcasts 	0
scalar IntersectionExampleScenario.node[38].nic.mac1609_4 	SentPackets 	0
scalar IntersectionExampleScenario.node[38].nic.mac1609_4 	SNIRLostPackets 	0
scalar IntersectionExampleScenario.node[38].nic.mac1609_4 	RXTXLostPackets 	0
scalar IntersectionExampleScenario.node[38].nic.mac1609_4 	TotalLostPackets 	0
scalar IntersectionExampleScenario.node[38].nic.mac1609_4 	DroppedPacketsInMac 	0
scalar IntersectionExampleScenario.node[38].nic.mac1609_4 	TooLittleTime 	0
scalar IntersectionExampleScenario.node[38].nic.mac1609_4 	TimesIntoBackoff 	0
scalar IntersectionExampleScenario.node[38].nic.mac1609_4 	SlotsBackoff 	0
scalar IntersectionExampleScenario.node[38].nic.mac1609_4 	NumInternalContention 	0
scalar IntersectionExampleScenario.node[38].nic.mac1609_4 	totalBusyTime 	0
scalar IntersectionExampleScenario.node[38].veinsmobility 	startTime 	97.75
scalar IntersectionExampleScenario.node[38].veinsmobility 	totalTime 	54
scalar IntersectionExampleScenario.node[38].veinsmobility 	stopTime 	152
scalar IntersectionExampleScenario.node[38].veinsmobility 	minSpeed 	0
scalar IntersectionExampleScenario.node[38].veinsmobility 	maxSpeed 	14.875
scalar IntersectionExampleScenario.node[38].veinsmobility 	totalDistance 	551.1516494751
scalar IntersectionExampleScenario.node[38].veinsmobility 	totalCO2Emission 	133.08935753276
scalar IntersectionExampleScenario.node[13].appl 	VehicleRemoved 	0
scalar IntersectionExampleScenario.node[13].appl 	ArrivedAtDest 	1
scalar IntersectionExampleScenario.node[13].appl 	IntersectionEnterTime 	34
scalar IntersectionExampleScenario.node[13].appl 	IntersectionExitTime 	135.81061169622
scalar IntersectionExampleScenario.node[13].appl 	NumberOfCollisions 	0
scalar IntersectionExampleScenario.node[13].nic.phy80211p 	busyTime 	0
scalar IntersectionExampleScenario.node[13].nic.mac1609_4 	ReceivedUnicastPackets 	0
scalar IntersectionExampleScenario.node[13].nic.mac1609_4 	ReceivedBroadcasts 	0
scalar IntersectionExampleScenario.node[13].nic.mac1609_4 	SentPackets 	0
scalar IntersectionExampleScenario.node[13].nic.mac1609_4 	SNIRLostPackets 	0
scalar IntersectionExampleScenario.node[13].nic.mac1609_4 	RXTXLostPackets 	0
scalar IntersectionExampleScenario.node[13].nic.mac1609_4 	TotalLostPackets 	0
scalar IntersectionExampleScenario.node[13].nic.mac1609_4 	DroppedPacketsInMac 	0
scalar IntersectionExampleScenario.node[13].nic.mac1609_4 	TooLittleTime 	0
scalar IntersectionExampleScenario.node[13].nic.mac1609_4 	TimesIntoBackoff 	0
scalar IntersectionExampleScenario.node[13].nic.mac1609_4 	SlotsBackoff 	0
scalar IntersectionExampleScenario.node[13].nic.mac1609_4 	NumInternalContention 	0
scalar IntersectionExampleScenario.node[13].nic.mac1609_4 	totalBusyTime 	0
scalar IntersectionExampleScenario.node[13].veinsmobility 	startTime 	34
scalar IntersectionExampleScenario.node[13].veinsmobility 	totalTime 	119
scalar IntersectionExampleScenario.node[13].veinsmobility 	stopTime 	153.25
scalar IntersectionExampleScenario.node[13].veinsmobility 	minSpeed 	0
scalar IntersectionExampleScenario.node[13].veinsmobility 	maxSpeed 	14.750860214233
scalar IntersectionExampleScenario.node[13].veinsmobility 	totalDistance 	556.45558651676
scalar IntersectionExampleScenario.node[13].veinsmobility 	totalCO2Emission 	210.04859385356
scalar IntersectionExampleScenario.node[39].appl 	VehicleRemoved 	0
scalar IntersectionExampleScenario.node[39].appl 	ArrivedAtDest 	1
scalar IntersectionExampleScenario.node[39].appl 	IntersectionEnterTime 	98.25
scalar IntersectionExampleScenario.node[39].appl 	IntersectionExitTime 	137.37083498738
scalar IntersectionExampleScenario.node[39].appl 	NumberOfCollisions 	0
scalar IntersectionExampleScenario.node[39].nic.phy80211p 	busyTime 	0
scalar IntersectionExampleScenario.node[39].nic.mac1609_4 	ReceivedUnicastPackets 	0
scalar IntersectionExampleScenario.node[39].nic.mac1609_4 	ReceivedBroadcasts 	0
scalar IntersectionExampleScenario.node[39].nic.mac1609_4 	SentPackets 	0
scalar IntersectionExampleScenario.node[39].nic.mac1609_4 	SNIRLostPackets 	0
scalar IntersectionExampleScenario.node[39].nic.mac1609_4 	RXTXLostPackets 	0
scalar IntersectionExampleScenario.node[39].nic.mac1609_4 	TotalLostPackets 	0
scalar IntersectionExampleScenario.node[39].nic.mac1609_4 	DroppedPacketsInMac 	0
scalar IntersectionExampleScenario.node[39].nic.mac1609_4 	TooLittleTime 	0
scalar IntersectionExampleScenario.node[39].nic.mac1609_4 	TimesIntoBackoff 	0
scalar IntersectionExampleScenario.node[39].nic.mac1609_4 	SlotsBackoff 	0
scalar IntersectionExampleScenario.node[39].nic.mac1609_4 	NumInternalContention 	0
scalar IntersectionExampleScenario.node[39].nic.mac1609_4 	totalBusyTime 	0
scalar IntersectionExampleScenario.node[39].veinsmobility 	startTime 	98.25
scalar IntersectionExampleScenario.node[39].veinsmobility 	totalTime 	55.75
scalar IntersectionExampleScenario.node[39].veinsmobility 	stopTime 	154.25
scalar IntersectionExampleScenario.node[39].veinsmobility 	minSpeed 	0
scalar IntersectionExampleScenario.node[39].veinsmobility 	maxSpeed 	15.976136207581
scalar IntersectionExampleScenario.node[39].veinsmobility 	totalDistance 	574.09013637855
scalar IntersectionExampleScenario.node[39].veinsmobility 	totalCO2Emission 	159.33919496
scalar IntersectionExampleScenario.node[16].appl 	VehicleRemoved 	0
scalar IntersectionExampleScenario.node[16].appl 	ArrivedAtDest 	1
scalar IntersectionExampleScenario.node[16].appl 	IntersectionEnterTime 	37
scalar IntersectionExampleScenario.node[16].appl 	IntersectionExitTime 	140.09690750614
scalar IntersectionExampleScenario.node[16].appl 	NumberOfCollisions 	0
scalar IntersectionExampleScenario.node[16].nic.phy80211p 	busyTime 	0
scalar IntersectionExampleScenario.node[16].nic.mac1609_4 	ReceivedUnicastPackets 	0
scalar IntersectionExampleScenario.node[16].nic.mac1609_4 	ReceivedBroadcasts 	0
scalar IntersectionExampleScenario.node[16].nic.mac1609_4 	SentPackets 	0
scalar IntersectionExampleScenario.node[16].nic.mac1609_4 	SNIRLostPackets 	0
scalar IntersectionExampleScenario.node[16].nic.mac1609_4 	RXTXLostPackets 	0
scalar IntersectionExampleScenario.node[16].nic.mac1609_4 	TotalLostPackets 	0
scalar IntersectionExampleScenario.node[16].nic.mac1609_4 	DroppedPacketsInMac 	0
scalar IntersectionExampleScenario.node[16].nic.mac1609_4 	TooLittleTime 	0
scalar IntersectionExampleScenario.node[16].nic.mac1609_4 	TimesIntoBackoff 	0
scalar IntersectionExampleScenario.node[16].nic.mac1609_4 	SlotsBackoff 	0
scalar IntersectionExampleScenario.node[16].nic.mac1609_4 	NumInternalContention 	0
scalar IntersectionExampleScenario.node[16].nic.mac1609_4 	totalBusyTime 	0
scalar IntersectionExampleScenario.node[16].veinsmobility 	startTime 	37
scalar IntersectionExampleScenario.node[16].veinsmobility 	totalTime 	118
scalar IntersectionExampleScenario.node[16].veinsmobility 	stopTime 	155.25
scalar IntersectionExampleScenario.node[16].veinsmobility 	minSpeed 	0
scalar IntersectionExampleScenario.node[16].veinsmobility 	maxSpeed 	16.75
scalar IntersectionExampleScenario.node[16].veinsmobility 	totalDistance 	587.85224914986
scalar IntersectionExampleScenario.node[16].veinsmobility 	totalCO2Emission 	229.2979517984
scalar IntersectionExampleScenario.node[15].appl 	VehicleRemoved 	0
scalar IntersectionExampleScenario.node[15].appl 	ArrivedAtDest 	1
scalar IntersectionExampleScenario.node[15].appl 	IntersectionEnterTime 	36.75
scalar IntersectionExampleScenario.node[15].appl 	IntersectionExitTime 	138.76946949496
scalar IntersectionExampleScenario.node[15].appl 	NumberOfCollisions 	0
scalar IntersectionExampleScenario.node[15].nic.phy80211p 	busyTime 	0
scalar IntersectionExampleScenario.node[15].nic.mac1609_4 	ReceivedUnicastPackets 	0
scalar IntersectionExampleScenario.node[15].nic.mac1609_4 	ReceivedBroadcasts 	0
scalar IntersectionExampleScenario.node[15].nic.mac1609_4 	SentPackets 	0
scalar IntersectionExampleScenario.node[15].nic.mac1609_4 	SNIRLostPackets 	0
scalar IntersectionExampleScenario.node[15].nic.mac1609_4 	RXTXLostPackets 	0
scalar IntersectionExampleScenario.node[15].nic.mac1609_4 	TotalLostPackets 	0
scalar IntersectionExampleScenario.node[15].nic.mac1609_4 	DroppedPacketsInMac 	0
scalar IntersectionExampleScenario.node[15].nic.mac1609_4 	TooLittleTime 	0
scalar IntersectionExampleScenario.node[15].nic.mac1609_4 	TimesIntoBackoff 	0
scalar IntersectionExampleScenario.node[15].nic.mac1609_4 	SlotsBackoff 	0
scalar IntersectionExampleScenario.node[15].nic.mac1609_4 	NumInternalContention 	0
scalar IntersectionExampleScenario.node[15].nic.mac1609_4 	totalBusyTime 	0
scalar IntersectionExampleScenario.node[15].veinsmobility 	startTime 	36.75
scalar IntersectionExampleScenario.node[15].veinsmobility 	totalTime 	118.5
scalar IntersectionExampleScenario.node[15].veinsmobility 	stopTime 	155.5
scalar IntersectionExampleScenario.node[15].veinsmobility 	minSpeed 	0
scalar IntersectionExampleScenario.node[15].veinsmobility 	maxSpeed 	15.715638160706
scalar IntersectionExampleScenario.node[15].veinsmobility 	totalDistance 	565.68545563262
scalar IntersectionExampleScenario.node[15].veinsmobility 	totalCO2Emission 	227.12765283476
scalar IntersectionExampleScenario.node[41].appl 	VehicleRemoved 	0
scalar IntersectionExampleScenario.node[41].appl 	ArrivedAtDest 	1
scalar IntersectionExampleScenario.node[41].appl 	IntersectionEnterTime 	103
scalar IntersectionExampleScenario.node[41].appl 	IntersectionExitTime 	138.79983979292
scalar IntersectionExampleScenario.node[41].appl 	NumberOfCollisions 	0
scalar IntersectionExampleScenario.node[41].nic.phy80211p 	busyTime 	0
scalar IntersectionExampleScenario.node[41].nic.mac1609_4 	ReceivedUnicastPackets 	0
scalar IntersectionExampleScenario.node[41].nic.mac1609_4 	ReceivedBroadcasts 	0
scalar IntersectionExampleScenario.node[41].nic.mac1609_4 	SentPackets 	0
scalar IntersectionExampleScenario.node[41].nic.mac1609_4 	SNIRLostPackets 	0
scalar IntersectionExampleScenario.node[41].nic.mac1609_4 	RXTXLostPackets 	0
scalar IntersectionExampleScenario.node[41].nic.mac1609_4 	TotalLostPackets 	0
scalar IntersectionExampleScenario.node[41].nic.mac1609_4 	DroppedPacketsInMac 	0
scalar IntersectionExampleScenario.node[41].nic.mac1609_4 	TooLittleTime 	0
scalar IntersectionExampleScenario.node[41].nic.mac1609_4 	TimesIntoBackoff 	0
scalar IntersectionExampleScenario.node[41].nic.mac1609_4 	SlotsBackoff 	0
scalar IntersectionExampleScenario.node[41].nic.mac1609_4 	NumInternalContention 	0
scalar IntersectionExampleScenario.node[41].nic.mac1609_4 	totalBusyTime 	0
scalar IntersectionExampleScenario.node[41].veinsmobility 	startTime 	103
scalar IntersectionExampleScenario.node[41].veinsmobility 	totalTime 	52.25
scalar IntersectionExampleScenario.node[41].veinsmobility 	stopTime 	155.5
scalar IntersectionExampleScenario.node[41].veinsmobility 	minSpeed 	0
scalar IntersectionExampleScenario.node[41].veinsmobility 	maxSpeed 	15.02499961853
scalar IntersectionExampleScenario.node[41].veinsmobility 	totalDistance 	563.589012146
scalar IntersectionExampleScenario.node[41].veinsmobility 	totalCO2Emission 	140.37179645696
scalar IntersectionExampleScenario.node[43].appl 	VehicleRemoved 	0
scalar IntersectionExampleScenario.node[43].appl 	ArrivedAtDest 	1
scalar IntersectionExampleScenario.node[43].appl 	IntersectionEnterTime 	116.5
scalar IntersectionExampleScenario.node[43].appl 	IntersectionExitTime 	141.32158381253
scalar IntersectionExampleScenario.node[43].appl 	NumberOfCollisions 	0
scalar IntersectionExampleScenario.node[43].nic.phy80211p 	busyTime 	0
scalar IntersectionExampleScenario.node[43].nic.mac1609_4 	ReceivedUnicastPackets 	0
scalar IntersectionExampleScenario.node[43].nic.mac1609_4 	ReceivedBroadcasts 	0
scalar IntersectionExampleScenario.node[43].nic.mac1609_4 	SentPackets 	0
scalar IntersectionExampleScenario.node[43].nic.mac1609_4 	SNIRLostPackets 	0
scalar IntersectionExampleScenario.node[43].nic.mac1609_4 	RXTXLostPackets 	0
scalar IntersectionExampleScenario.node[43].nic.mac1609_4 	TotalLostPackets 	0
scalar IntersectionExampleScenario.node[43].nic.mac1609_4 	DroppedPacketsInMac 	0
scalar IntersectionExampleScenario.node[43].nic.mac1609_4 	TooLittleTime 	0
scalar IntersectionExampleScenario.node[43].nic.mac1609_4 	TimesIntoBackoff 	0
scalar IntersectionExampleScenario.node[43].nic.mac1609_4 	SlotsBackoff 	0
scalar IntersectionExampleScenario.node[43].nic.mac1609_4 	NumInternalContention 	0
scalar IntersectionExampleScenario.node[43].nic.mac1609_4 	totalBusyTime 	0
scalar IntersectionExampleScenario.node[43].veinsmobility 	startTime 	116.5
scalar IntersectionExampleScenario.node[43].veinsmobility 	totalTime 	40.75
scalar IntersectionExampleScenario.node[43].veinsmobility 	stopTime 	157.5
scalar IntersectionExampleScenario.node[43].veinsmobility 	minSpeed 	5.6500000953674
scalar IntersectionExampleScenario.node[43].veinsmobility 	maxSpeed 	15.64999961853
scalar IntersectionExampleScenario.node[43].veinsmobility 	totalDistance 	554.56839752197
scalar IntersectionExampleScenario.node[43].veinsmobility 	totalCO2Emission 	132.70346123564
scalar IntersectionExampleScenario.node[17].appl 	VehicleRemoved 	0
scalar IntersectionExampleScenario.node[17].appl 	ArrivedAtDest 	1
scalar IntersectionExampleScenario.node[17].appl 	IntersectionEnterTime 	40.5
scalar IntersectionExampleScenario.node[17].appl 	IntersectionExitTime 	142.27696356198
scalar IntersectionExampleScenario.node[17].appl 	NumberOfCollisions 	0
scalar IntersectionExampleScenario.node[17].nic.phy80211p 	busyTime 	0
scalar IntersectionExampleScenario.node[17].nic.mac1609_4 	ReceivedUnicastPackets 	0
scalar IntersectionExampleScenario.node[17].nic.mac1609_4 	ReceivedBroadcasts 	0
scalar IntersectionExampleScenario.node[17].nic.mac1609_4 	SentPackets 	0
scalar IntersectionExampleScenario.node[17].nic.mac1609_4 	SNIRLostPackets 	0
scalar IntersectionExampleScenario.node[17].nic.mac1609_4 	RXTXLostPackets 	0
scalar IntersectionExampleScenario.node[17].nic.mac1609_4 	TotalLostPackets 	0
scalar IntersectionExampleScenario.node[17].nic.mac1609_4 	DroppedPacketsInMac 	0
scalar IntersectionExampleScenario.node[17].nic.mac1609_4 	TooLittleTime 	0
scalar IntersectionExampleScenario.node[17].nic.mac1609_4 	TimesIntoBackoff 	0
scalar IntersectionExampleScenario.node[17].nic.mac1609_4 	SlotsBackoff 	0
scalar IntersectionExampleScenario.node[17].nic.mac1609_4 	NumInternalContention 	0
scalar IntersectionExampleScenario.node[17].nic.mac1609_4 	totalBusyTime 	0
scalar IntersectionExampleScenario.node[17].veinsmobility 	startTime 	40.5
scalar IntersectionExampleScenario.node[17].veinsmobility 	totalTime 	118.5
scalar IntersectionExampleScenario.node[17].veinsmobility 	stopTime 	159.25
scalar IntersectionExampleScenario.node[17].veinsmobility 	minSpeed 	0
scalar IntersectionExampleScenario.node[17].veinsmobility 	maxSpeed 	15.64999961853
scalar IntersectionExampleScenario.node[17].veinsmobility 	totalDistance 	573.29959005039
scalar IntersectionExampleScenario.node[17].veinsmobility 	totalCO2Emission 	217.84361387864
scalar IntersectionExampleScenario.node[19].appl 	VehicleRemoved 	0
scalar IntersectionExampleScenario.node[19].appl 	ArrivedAtDest 	1
scalar IntersectionExampleScenario.node[19].appl 	IntersectionEnterTime 	47
scalar IntersectionExampleScenario.node[19].appl 	IntersectionExitTime 	144.54080852866
scalar IntersectionExampleScenario.node[19].appl 	NumberOfCollisions 	0
scalar IntersectionExampleScenario.node[19].nic.phy80211p 	busyTime 	0
scalar IntersectionExampleScenario.node[19].nic.mac1609_4 	ReceivedUnicastPackets 	0
scalar IntersectionExampleScenario.node[19].nic.mac1609_4 	ReceivedBroadcasts 	0
scalar IntersectionExampleScenario.node[19].nic.mac1609_4 	SentPackets 	0
scalar IntersectionExampleScenario.node[19].nic.mac1609_4 	SNIRLostPackets 	0
scalar IntersectionExampleScenario.node[19].nic.mac1609_4 	RXTXLostPackets 	0
scalar IntersectionExampleScenario.node[19].nic.mac1609_4 	TotalLostPackets 	0
scalar IntersectionExampleScenario.node[19].nic.mac1609_4 	DroppedPacketsInMac 	0
scalar IntersectionExampleScenario.node[19].nic.mac1609_4 	TooLittleTime 	0
scalar IntersectionExampleScenario.node[19].nic.mac1609_4 	TimesIntoBackoff 	0
scalar IntersectionExampleScenario.node[19].nic.mac1609_4 	SlotsBackoff 	0
scalar IntersectionExampleScenario.node[19].nic.mac1609_4 	NumInternalContention 	0
scalar IntersectionExampleScenario.node[19].nic.mac1609_4 	totalBusyTime 	0
scalar IntersectionExampleScenario.node[19].veinsmobility 	startTime 	47
scalar IntersectionExampleScenario.node[19].veinsmobility 	totalTime 	113.75
scalar IntersectionExampleScenario.node[19].veinsmobility 	stopTime 	161
scalar IntersectionExampleScenario.node[19].veinsmobility 	minSpeed 	0
scalar IntersectionExampleScenario.node[19].veinsmobility 	maxSpeed 	15.766278266907
scalar IntersectionExampleScenario.node[19].veinsmobility 	totalDistance 	544.01728795642
scalar IntersectionExampleScenario.node[19].veinsmobility 	totalCO2Emission 	210.99287207161
scalar IntersectionExampleScenario.node[20].appl 	VehicleRemoved 	0
scalar IntersectionExampleScenario.node[20].appl 	ArrivedAtDest 	1
scalar IntersectionExampleScenario.node[20].appl 	IntersectionEnterTime 	47.25
scalar IntersectionExampleScenario.node[20].appl 	IntersectionExitTime 	146.34030508067
scalar IntersectionExampleScenario.node[20].appl 	NumberOfCollisions 	0
scalar IntersectionExampleScenario.node[20].nic.phy80211p 	busyTime 	0
scalar IntersectionExampleScenario.node[20].nic.mac1609_4 	ReceivedUnicastPackets 	0
scalar IntersectionExampleScenario.node[20].nic.mac1609_4 	ReceivedBroadcasts 	0
scalar IntersectionExampleScenario.node[20].nic.mac1609_4 	SentPackets 	0
scalar IntersectionExampleScenario.node[20].nic.mac1609_4 	SNIRLostPackets 	0
scalar IntersectionExampleScenario.node[20].nic.mac1609_4 	RXTXLostPackets 	0
scalar IntersectionExampleScenario.node[20].nic.mac1609_4 	TotalLostPackets 	0
scalar IntersectionExampleScenario.node[20].nic.mac1609_4 	DroppedPacketsInMac 	0
scalar IntersectionExampleScenario.node[20].nic.mac1609_4 	TooLittleTime 	0
scalar IntersectionExampleScenario.node[20].nic.mac1609_4 	TimesIntoBackoff 	0
scalar IntersectionExampleScenario.node[20].nic.mac1609_4 	SlotsBackoff 	0
scalar IntersectionExampleScenario.node[20].nic.mac1609_4 	NumInternalContention 	0
scalar IntersectionExampleScenario.node[20].nic.mac1609_4 	totalBusyTime 	0
scalar IntersectionExampleScenario.node[20].veinsmobility 	startTime 	47.25
scalar IntersectionExampleScenario.node[20].veinsmobility 	totalTime 	115.25
scalar IntersectionExampleScenario.node[20].veinsmobility 	stopTime 	162.75
scalar IntersectionExampleScenario.node[20].veinsmobility 	minSpeed 	0
scalar IntersectionExampleScenario.node[20].veinsmobility 	maxSpeed 	15.5
scalar IntersectionExampleScenario.node[20].veinsmobility 	totalDistance 	578.40954589844
scalar IntersectionExampleScenario.node[20].veinsmobility 	totalCO2Emission 	219.58307989111
scalar IntersectionExampleScenario.node[21].appl 	VehicleRemoved 	0
scalar IntersectionExampleScenario.node[21].appl 	ArrivedAtDest 	1
scalar IntersectionExampleScenario.node[21].appl 	IntersectionEnterTime 	53.25
scalar IntersectionExampleScenario.node[21].appl 	IntersectionExitTime 	148.78858430093
scalar IntersectionExampleScenario.node[21].appl 	NumberOfCollisions 	0
scalar IntersectionExampleScenario.node[21].nic.phy80211p 	busyTime 	0
scalar IntersectionExampleScenario.node[21].nic.mac1609_4 	ReceivedUnicastPackets 	0
scalar IntersectionExampleScenario.node[21].nic.mac1609_4 	ReceivedBroadcasts 	0
scalar IntersectionExampleScenario.node[21].nic.mac1609_4 	SentPackets 	0
scalar IntersectionExampleScenario.node[21].nic.mac1609_4 	SNIRLostPackets 	0
scalar IntersectionExampleScenario.node[21].nic.mac1609_4 	RXTXLostPackets 	0
scalar IntersectionExampleScenario.node[21].nic.mac1609_4 	TotalLostPackets 	0
scalar IntersectionExampleScenario.node[21].nic.mac1609_4 	DroppedPacketsInMac 	0
scalar IntersectionExampleScenario.node[21].nic.mac1609_4 	TooLittleTime 	0
scalar IntersectionExampleScenario.node[21].nic.mac1609_4 	TimesIntoBackoff 	0
scalar IntersectionExampleScenario.node[21].nic.mac1609_4 	SlotsBackoff 	0
scalar IntersectionExampleScenario.node[21].nic.mac1609_4 	NumInternalContention 	0
scalar IntersectionExampleScenario.node[21].nic.mac1609_4 	totalBusyTime 	0
scalar IntersectionExampleScenario.node[21].veinsmobility 	startTime 	53.25
scalar IntersectionExampleScenario.node[21].veinsmobility 	totalTime 	112.25
scalar IntersectionExampleScenario.node[21].veinsmobility 	stopTime 	165.75
scalar IntersectionExampleScenario.node[21].veinsmobility 	minSpeed 	0
scalar IntersectionExampleScenario.node[21].veinsmobility 	maxSpeed 	15.64999961853
scalar IntersectionExampleScenario.node[21].veinsmobility 	totalDistance 	550.4276795337
scalar IntersectionExampleScenario.node[21].veinsmobility 	totalCO2Emission 	213.47327999418
scalar IntersectionExampleScenario.node[24].appl 	VehicleRemoved 	0
scalar IntersectionExampleScenario.node[24].appl 	ArrivedAtDest 	1
scalar IntersectionExampleScenario.node[24].appl 	IntersectionEnterTime 	65.75
scalar IntersectionExampleScenario.node[24].appl 	IntersectionExitTime 	150.60879960077
scalar IntersectionExampleScenario.node[24].appl 	NumberOfCollisions 	0
scalar IntersectionExampleScenario.node[24].nic.phy80211p 	busyTime 	0
scalar IntersectionExampleScenario.node[24].nic.mac1609_4 	ReceivedUnicastPackets 	0
scalar IntersectionExampleScenario.node[24].nic.mac1609_4 	ReceivedBroadcasts 	0
scalar IntersectionExampleScenario.node[24].nic.mac1609_4 	SentPackets 	0
scalar IntersectionExampleScenario.node[24].nic.mac1609_4 	SNIRLostPackets 	0
scalar IntersectionExampleScenario.node[24].nic.mac1609_4 	RXTXLostPackets 	0
scalar IntersectionExampleScenario.node[24].nic.mac1609_4 	TotalLostPackets 	0
scalar IntersectionExampleScenario.node[24].nic.mac1609_4 	DroppedPacketsInMac 	0
scalar IntersectionExampleScenario.node[24].nic.mac1609_4 	TooLittleTime 	0
scalar IntersectionExampleScenario.node[24].nic.mac1609_4 	TimesIntoBackoff 	0
scalar IntersectionExampleScenario.node[24].nic.mac1609_4 	SlotsBackoff 	0
scalar IntersectionExampleScenario.node[24].nic.mac1609_4 	NumInternalContention 	0
[...]
scalar IntersectionExampleScenario.node[702].veinsmobility 	totalCO2Emission 	63.987359314787
scalar IntersectionExampleScenario.node[703].appl 	VehicleRemoved 	0
scalar IntersectionExampleScenario.node[703].appl 	ArrivedAtDest 	0
scalar IntersectionExampleScenario.node[703].appl 	IntersectionEnterTime 	1771.75
scalar IntersectionExampleScenario.node[703].appl 	IntersectionExitTime 	1794.064788519
scalar IntersectionExampleScenario.node[703].appl 	NumberOfCollisions 	0
scalar IntersectionExampleScenario.node[703].nic.phy80211p 	busyTime 	0
scalar IntersectionExampleScenario.node[703].nic.mac1609_4 	ReceivedUnicastPackets 	0
scalar IntersectionExampleScenario.node[703].nic.mac1609_4 	ReceivedBroadcasts 	0
scalar IntersectionExampleScenario.node[703].nic.mac1609_4 	SentPackets 	0
scalar IntersectionExampleScenario.node[703].nic.mac1609_4 	SNIRLostPackets 	0
scalar IntersectionExampleScenario.node[703].nic.mac1609_4 	RXTXLostPackets 	0
scalar IntersectionExampleScenario.node[703].nic.mac1609_4 	TotalLostPackets 	0
scalar IntersectionExampleScenario.node[703].nic.mac1609_4 	DroppedPacketsInMac 	0
scalar IntersectionExampleScenario.node[703].nic.mac1609_4 	TooLittleTime 	0
scalar IntersectionExampleScenario.node[703].nic.mac1609_4 	TimesIntoBackoff 	0
scalar IntersectionExampleScenario.node[703].nic.mac1609_4 	SlotsBackoff 	0
scalar IntersectionExampleScenario.node[703].nic.mac1609_4 	NumInternalContention 	0
scalar IntersectionExampleScenario.node[703].nic.mac1609_4 	totalBusyTime 	0
scalar IntersectionExampleScenario.node[703].veinsmobility 	startTime 	1771.75
scalar IntersectionExampleScenario.node[703].veinsmobility 	totalTime 	28.25
scalar IntersectionExampleScenario.node[703].veinsmobility 	stopTime 	1800
scalar IntersectionExampleScenario.node[703].veinsmobility 	minSpeed 	5.6500000953674
scalar IntersectionExampleScenario.node[703].veinsmobility 	maxSpeed 	17.125
scalar IntersectionExampleScenario.node[703].veinsmobility 	totalDistance 	385.28736936493
scalar IntersectionExampleScenario.node[703].veinsmobility 	totalCO2Emission 	114.46450755477
scalar IntersectionExampleScenario.node[704].appl 	VehicleRemoved 	0
scalar IntersectionExampleScenario.node[704].appl 	ArrivedAtDest 	0
scalar IntersectionExampleScenario.node[704].appl 	IntersectionEnterTime 	1772.75
scalar IntersectionExampleScenario.node[704].appl 	IntersectionExitTime 	1796.7850294675
scalar IntersectionExampleScenario.node[704].appl 	NumberOfCollisions 	0
scalar IntersectionExampleScenario.node[704].nic.phy80211p 	busyTime 	0
scalar IntersectionExampleScenario.node[704].nic.mac1609_4 	ReceivedUnicastPackets 	0
scalar IntersectionExampleScenario.node[704].nic.mac1609_4 	ReceivedBroadcasts 	0
scalar IntersectionExampleScenario.node[704].nic.mac1609_4 	SentPackets 	0
scalar IntersectionExampleScenario.node[704].nic.mac1609_4 	SNIRLostPackets 	0
scalar IntersectionExampleScenario.node[704].nic.mac1609_4 	RXTXLostPackets 	0
scalar IntersectionExampleScenario.node[704].nic.mac1609_4 	TotalLostPackets 	0
scalar IntersectionExampleScenario.node[704].nic.mac1609_4 	DroppedPacketsInMac 	0
scalar IntersectionExampleScenario.node[704].nic.mac1609_4 	TooLittleTime 	0
scalar IntersectionExampleScenario.node[704].nic.mac1609_4 	TimesIntoBackoff 	0
scalar IntersectionExampleScenario.node[704].nic.mac1609_4 	SlotsBackoff 	0
scalar IntersectionExampleScenario.node[704].nic.mac1609_4 	NumInternalContention 	0
scalar IntersectionExampleScenario.node[704].nic.mac1609_4 	totalBusyTime 	0
scalar IntersectionExampleScenario.node[704].veinsmobility 	startTime 	1772.75
scalar IntersectionExampleScenario.node[704].veinsmobility 	totalTime 	27.25
scalar IntersectionExampleScenario.node[704].veinsmobility 	stopTime 	1800
scalar IntersectionExampleScenario.node[704].veinsmobility 	minSpeed 	5.6500000953674
scalar IntersectionExampleScenario.node[704].veinsmobility 	maxSpeed 	15.5
scalar IntersectionExampleScenario.node[704].veinsmobility 	totalDistance 	372.23101806641
scalar IntersectionExampleScenario.node[704].veinsmobility 	totalCO2Emission 	91.004503540164
scalar IntersectionExampleScenario.node[705].appl 	VehicleRemoved 	0
scalar IntersectionExampleScenario.node[705].appl 	ArrivedAtDest 	0
scalar IntersectionExampleScenario.node[705].appl 	IntersectionEnterTime 	1773.75
scalar IntersectionExampleScenario.node[705].appl 	IntersectionExitTime 	-1
scalar IntersectionExampleScenario.node[705].appl 	NumberOfCollisions 	0
scalar IntersectionExampleScenario.node[705].nic.phy80211p 	busyTime 	0
scalar IntersectionExampleScenario.node[705].nic.mac1609_4 	ReceivedUnicastPackets 	0
scalar IntersectionExampleScenario.node[705].nic.mac1609_4 	ReceivedBroadcasts 	0
scalar IntersectionExampleScenario.node[705].nic.mac1609_4 	SentPackets 	0
scalar IntersectionExampleScenario.node[705].nic.mac1609_4 	SNIRLostPackets 	0
scalar IntersectionExampleScenario.node[705].nic.mac1609_4 	RXTXLostPackets 	0
scalar IntersectionExampleScenario.node[705].nic.mac1609_4 	TotalLostPackets 	0
scalar IntersectionExampleScenario.node[705].nic.mac1609_4 	DroppedPacketsInMac 	0
scalar IntersectionExampleScenario.node[705].nic.mac1609_4 	TooLittleTime 	0
scalar IntersectionExampleScenario.node[705].nic.mac1609_4 	TimesIntoBackoff 	0
scalar IntersectionExampleScenario.node[705].nic.mac1609_4 	SlotsBackoff 	0
scalar IntersectionExampleScenario.node[705].nic.mac1609_4 	NumInternalContention 	0
scalar IntersectionExampleScenario.node[705].nic.mac1609_4 	totalBusyTime 	0
scalar IntersectionExampleScenario.node[705].veinsmobility 	startTime 	1773.75
scalar IntersectionExampleScenario.node[705].veinsmobility 	totalTime 	26.25
scalar IntersectionExampleScenario.node[705].veinsmobility 	stopTime 	1800
scalar IntersectionExampleScenario.node[705].veinsmobility 	minSpeed 	2.491539478302
scalar IntersectionExampleScenario.node[705].veinsmobility 	maxSpeed 	15.02499961853
scalar IntersectionExampleScenario.node[705].veinsmobility 	totalDistance 	269.63072967529
scalar IntersectionExampleScenario.node[705].veinsmobility 	totalCO2Emission 	64.582045748685
scalar IntersectionExampleScenario.node[706].appl 	VehicleRemoved 	0
scalar IntersectionExampleScenario.node[706].appl 	ArrivedAtDest 	0
scalar IntersectionExampleScenario.node[706].appl 	IntersectionEnterTime 	1778
scalar IntersectionExampleScenario.node[706].appl 	IntersectionExitTime 	-1
scalar IntersectionExampleScenario.node[706].appl 	NumberOfCollisions 	0
scalar IntersectionExampleScenario.node[706].nic.phy80211p 	busyTime 	0
scalar IntersectionExampleScenario.node[706].nic.mac1609_4 	ReceivedUnicastPackets 	0
scalar IntersectionExampleScenario.node[706].nic.mac1609_4 	ReceivedBroadcasts 	0
scalar IntersectionExampleScenario.node[706].nic.mac1609_4 	SentPackets 	0
scalar IntersectionExampleScenario.node[706].nic.mac1609_4 	SNIRLostPackets 	0
scalar IntersectionExampleScenario.node[706].nic.mac1609_4 	RXTXLostPackets 	0
scalar IntersectionExampleScenario.node[706].nic.mac1609_4 	TotalLostPackets 	0
scalar IntersectionExampleScenario.node[706].nic.mac1609_4 	DroppedPacketsInMac 	0
scalar IntersectionExampleScenario.node[706].nic.mac1609_4 	TooLittleTime 	0
scalar IntersectionExampleScenario.node[706].nic.mac1609_4 	TimesIntoBackoff 	0
scalar IntersectionExampleScenario.node[706].nic.mac1609_4 	SlotsBackoff 	0
scalar IntersectionExampleScenario.node[706].nic.mac1609_4 	NumInternalContention 	0
scalar IntersectionExampleScenario.node[706].nic.mac1609_4 	totalBusyTime 	0
scalar IntersectionExampleScenario.node[706].veinsmobility 	startTime 	1778
scalar IntersectionExampleScenario.node[706].veinsmobility 	totalTime 	22
scalar IntersectionExampleScenario.node[706].veinsmobility 	stopTime 	1800
scalar IntersectionExampleScenario.node[706].veinsmobility 	minSpeed 	0
scalar IntersectionExampleScenario.node[706].veinsmobility 	maxSpeed 	15.242630004883
scalar IntersectionExampleScenario.node[706].veinsmobility 	totalDistance 	291.39950561523
scalar IntersectionExampleScenario.node[706].veinsmobility 	totalCO2Emission 	66.688227367223
scalar IntersectionExampleScenario.node[707].appl 	VehicleRemoved 	0
scalar IntersectionExampleScenario.node[707].appl 	ArrivedAtDest 	0
scalar IntersectionExampleScenario.node[707].appl 	IntersectionEnterTime 	1779.5
scalar IntersectionExampleScenario.node[707].appl 	IntersectionExitTime 	-1
scalar IntersectionExampleScenario.node[707].appl 	NumberOfCollisions 	0
scalar IntersectionExampleScenario.node[707].nic.phy80211p 	busyTime 	0
scalar IntersectionExampleScenario.node[707].nic.mac1609_4 	ReceivedUnicastPackets 	0
scalar IntersectionExampleScenario.node[707].nic.mac1609_4 	ReceivedBroadcasts 	0
scalar IntersectionExampleScenario.node[707].nic.mac1609_4 	SentPackets 	0
scalar IntersectionExampleScenario.node[707].nic.mac1609_4 	SNIRLostPackets 	0
scalar IntersectionExampleScenario.node[707].nic.mac1609_4 	RXTXLostPackets 	0
scalar IntersectionExampleScenario.node[707].nic.mac1609_4 	TotalLostPackets 	0
scalar IntersectionExampleScenario.node[707].nic.mac1609_4 	DroppedPacketsInMac 	0
scalar IntersectionExampleScenario.node[707].nic.mac1609_4 	TooLittleTime 	0
scalar IntersectionExampleScenario.node[707].nic.mac1609_4 	TimesIntoBackoff 	0
scalar IntersectionExampleScenario.node[707].nic.mac1609_4 	SlotsBackoff 	0
scalar IntersectionExampleScenario.node[707].nic.mac1609_4 	NumInternalContention 	0
scalar IntersectionExampleScenario.node[707].nic.mac1609_4 	totalBusyTime 	0
scalar IntersectionExampleScenario.node[707].veinsmobility 	startTime 	1779.5
scalar IntersectionExampleScenario.node[707].veinsmobility 	totalTime 	20.5
scalar IntersectionExampleScenario.node[707].veinsmobility 	stopTime 	1800
scalar IntersectionExampleScenario.node[707].veinsmobility 	minSpeed 	5.6500000953674
scalar IntersectionExampleScenario.node[707].veinsmobility 	maxSpeed 	15.02499961853
scalar IntersectionExampleScenario.node[707].veinsmobility 	totalDistance 	279.95330810547
scalar IntersectionExampleScenario.node[707].veinsmobility 	totalCO2Emission 	62.707816682628
scalar IntersectionExampleScenario.node[708].appl 	VehicleRemoved 	0
scalar IntersectionExampleScenario.node[708].appl 	ArrivedAtDest 	0
scalar IntersectionExampleScenario.node[708].appl 	IntersectionEnterTime 	1780.5
scalar IntersectionExampleScenario.node[708].appl 	IntersectionExitTime 	-1
scalar IntersectionExampleScenario.node[708].appl 	NumberOfCollisions 	0
scalar IntersectionExampleScenario.node[708].nic.phy80211p 	busyTime 	0
scalar IntersectionExampleScenario.node[708].nic.mac1609_4 	ReceivedUnicastPackets 	0
scalar IntersectionExampleScenario.node[708].nic.mac1609_4 	ReceivedBroadcasts 	0
scalar IntersectionExampleScenario.node[708].nic.mac1609_4 	SentPackets 	0
scalar IntersectionExampleScenario.node[708].nic.mac1609_4 	SNIRLostPackets 	0
scalar IntersectionExampleScenario.node[708].nic.mac1609_4 	RXTXLostPackets 	0
scalar IntersectionExampleScenario.node[708].nic.mac1609_4 	TotalLostPackets 	0
scalar IntersectionExampleScenario.node[708].nic.mac1609_4 	DroppedPacketsInMac 	0
scalar IntersectionExampleScenario.node[708].nic.mac1609_4 	TooLittleTime 	0
scalar IntersectionExampleScenario.node[708].nic.mac1609_4 	TimesIntoBackoff 	0
scalar IntersectionExampleScenario.node[708].nic.mac1609_4 	SlotsBackoff 	0
scalar IntersectionExampleScenario.node[708].nic.mac1609_4 	NumInternalContention 	0
scalar IntersectionExampleScenario.node[708].nic.mac1609_4 	totalBusyTime 	0
scalar IntersectionExampleScenario.node[708].veinsmobility 	startTime 	1780.5
scalar IntersectionExampleScenario.node[708].veinsmobility 	totalTime 	19.5
scalar IntersectionExampleScenario.node[708].veinsmobility 	stopTime 	1800
scalar IntersectionExampleScenario.node[708].veinsmobility 	minSpeed 	5.6500000953674
scalar IntersectionExampleScenario.node[708].veinsmobility 	maxSpeed 	14.39999961853
scalar IntersectionExampleScenario.node[708].veinsmobility 	totalDistance 	228.56046295166
scalar IntersectionExampleScenario.node[708].veinsmobility 	totalCO2Emission 	49.142146203736
scalar IntersectionExampleScenario.node[709].appl 	VehicleRemoved 	0
scalar IntersectionExampleScenario.node[709].appl 	ArrivedAtDest 	0
scalar IntersectionExampleScenario.node[709].appl 	IntersectionEnterTime 	1781
scalar IntersectionExampleScenario.node[709].appl 	IntersectionExitTime 	-1
scalar IntersectionExampleScenario.node[709].appl 	NumberOfCollisions 	0
scalar IntersectionExampleScenario.node[709].nic.phy80211p 	busyTime 	0
scalar IntersectionExampleScenario.node[709].nic.mac1609_4 	ReceivedUnicastPackets 	0
scalar IntersectionExampleScenario.node[709].nic.mac1609_4 	ReceivedBroadcasts 	0
scalar IntersectionExampleScenario.node[709].nic.mac1609_4 	SentPackets 	0
scalar IntersectionExampleScenario.node[709].nic.mac1609_4 	SNIRLostPackets 	0
scalar IntersectionExampleScenario.node[709].nic.mac1609_4 	RXTXLostPackets 	0
scalar IntersectionExampleScenario.node[709].nic.mac1609_4 	TotalLostPackets 	0
scalar IntersectionExampleScenario.node[709].nic.mac1609_4 	DroppedPacketsInMac 	0
scalar IntersectionExampleScenario.node[709].nic.mac1609_4 	TooLittleTime 	0
scalar IntersectionExampleScenario.node[709].nic.mac1609_4 	TimesIntoBackoff 	0
scalar IntersectionExampleScenario.node[709].nic.mac1609_4 	SlotsBackoff 	0
scalar IntersectionExampleScenario.node[709].nic.mac1609_4 	NumInternalContention 	0
scalar IntersectionExampleScenario.node[709].nic.mac1609_4 	totalBusyTime 	0
scalar IntersectionExampleScenario.node[709].veinsmobility 	startTime 	1781
scalar IntersectionExampleScenario.node[709].veinsmobility 	totalTime 	19
scalar IntersectionExampleScenario.node[709].veinsmobility 	stopTime 	1800
scalar IntersectionExampleScenario.node[709].veinsmobility 	minSpeed 	5.6500000953674
scalar IntersectionExampleScenario.node[709].veinsmobility 	maxSpeed 	15.291888237
scalar IntersectionExampleScenario.node[709].veinsmobility 	totalDistance 	235.20304870605
scalar IntersectionExampleScenario.node[709].veinsmobility 	totalCO2Emission 	60.165163917197
scalar IntersectionExampleScenario.node[710].appl 	VehicleRemoved 	0
scalar IntersectionExampleScenario.node[710].appl 	ArrivedAtDest 	0
scalar IntersectionExampleScenario.node[710].appl 	IntersectionEnterTime 	1785.75
scalar IntersectionExampleScenario.node[710].appl 	IntersectionExitTime 	-1
scalar IntersectionExampleScenario.node[710].appl 	NumberOfCollisions 	0
scalar IntersectionExampleScenario.node[710].nic.phy80211p 	busyTime 	0
scalar IntersectionExampleScenario.node[710].nic.mac1609_4 	ReceivedUnicastPackets 	0
scalar IntersectionExampleScenario.node[710].nic.mac1609_4 	ReceivedBroadcasts 	0
scalar IntersectionExampleScenario.node[710].nic.mac1609_4 	SentPackets 	0
scalar IntersectionExampleScenario.node[710].nic.mac1609_4 	SNIRLostPackets 	0
scalar IntersectionExampleScenario.node[710].nic.mac1609_4 	RXTXLostPackets 	0
scalar IntersectionExampleScenario.node[710].nic.mac1609_4 	TotalLostPackets 	0
scalar IntersectionExampleScenario.node[710].nic.mac1609_4 	DroppedPacketsInMac 	0
scalar IntersectionExampleScenario.node[710].nic.mac1609_4 	TooLittleTime 	0
scalar IntersectionExampleScenario.node[710].nic.mac1609_4 	TimesIntoBackoff 	0
scalar IntersectionExampleScenario.node[710].nic.mac1609_4 	SlotsBackoff 	0
scalar IntersectionExampleScenario.node[710].nic.mac1609_4 	NumInternalContention 	0
scalar IntersectionExampleScenario.node[710].nic.mac1609_4 	totalBusyTime 	0
scalar IntersectionExampleScenario.node[710].veinsmobility 	startTime 	1785.75
scalar IntersectionExampleScenario.node[710].veinsmobility 	totalTime 	14.25
scalar IntersectionExampleScenario.node[710].veinsmobility 	stopTime 	1800
scalar IntersectionExampleScenario.node[710].veinsmobility 	minSpeed 	5.6500000953674
scalar IntersectionExampleScenario.node[710].veinsmobility 	maxSpeed 	15.661553382874
scalar IntersectionExampleScenario.node[710].veinsmobility 	totalDistance 	199.38665771484
scalar IntersectionExampleScenario.node[710].veinsmobility 	totalCO2Emission 	55.23912956317
scalar IntersectionExampleScenario.node[711].appl 	VehicleRemoved 	0
scalar IntersectionExampleScenario.node[711].appl 	ArrivedAtDest 	0
scalar IntersectionExampleScenario.node[711].appl 	IntersectionEnterTime 	1789.75
scalar IntersectionExampleScenario.node[711].appl 	IntersectionExitTime 	-1
scalar IntersectionExampleScenario.node[711].appl 	NumberOfCollisions 	0
scalar IntersectionExampleScenario.node[711].nic.phy80211p 	busyTime 	0
scalar IntersectionExampleScenario.node[711].nic.mac1609_4 	ReceivedUnicastPackets 	0
scalar IntersectionExampleScenario.node[711].nic.mac1609_4 	ReceivedBroadcasts 	0
scalar IntersectionExampleScenario.node[711].nic.mac1609_4 	SentPackets 	0
scalar IntersectionExampleScenario.node[711].nic.mac1609_4 	SNIRLostPackets 	0
scalar IntersectionExampleScenario.node[711].nic.mac1609_4 	RXTXLostPackets 	0
scalar IntersectionExampleScenario.node[711].nic.mac1609_4 	TotalLostPackets 	0
scalar IntersectionExampleScenario.node[711].nic.mac1609_4 	DroppedPacketsInMac 	0
scalar IntersectionExampleScenario.node[711].nic.mac1609_4 	TooLittleTime 	0
scalar IntersectionExampleScenario.node[711].nic.mac1609_4 	TimesIntoBackoff 	0
scalar IntersectionExampleScenario.node[711].nic.mac1609_4 	SlotsBackoff 	0
scalar IntersectionExampleScenario.node[711].nic.mac1609_4 	NumInternalContention 	0
scalar IntersectionExampleScenario.node[711].nic.mac1609_4 	totalBusyTime 	0
scalar IntersectionExampleScenario.node[711].veinsmobility 	startTime 	1789.75
scalar IntersectionExampleScenario.node[711].veinsmobility 	totalTime 	10.25
scalar IntersectionExampleScenario.node[711].veinsmobility 	stopTime 	1800
scalar IntersectionExampleScenario.node[711].veinsmobility 	minSpeed 	5.6500000953674
scalar IntersectionExampleScenario.node[711].veinsmobility 	maxSpeed 	15.02499961853
scalar IntersectionExampleScenario.node[711].veinsmobility 	totalDistance 	133.99617767334
scalar IntersectionExampleScenario.node[711].veinsmobility 	totalCO2Emission 	44.068677700564
scalar IntersectionExampleScenario.node[712].appl 	VehicleRemoved 	0
scalar IntersectionExampleScenario.node[712].appl 	ArrivedAtDest 	0
scalar IntersectionExampleScenario.node[712].appl 	IntersectionEnterTime 	1794
scalar IntersectionExampleScenario.node[712].appl 	IntersectionExitTime 	-1
scalar IntersectionExampleScenario.node[712].appl 	NumberOfCollisions 	0
scalar IntersectionExampleScenario.node[712].nic.phy80211p 	busyTime 	0
scalar IntersectionExampleScenario.node[712].nic.mac1609_4 	ReceivedUnicastPackets 	0
scalar IntersectionExampleScenario.node[712].nic.mac1609_4 	ReceivedBroadcasts 	0
scalar IntersectionExampleScenario.node[712].nic.mac1609_4 	SentPackets 	0
scalar IntersectionExampleScenario.node[712].nic.mac1609_4 	SNIRLostPackets 	0
scalar IntersectionExampleScenario.node[712].nic.mac1609_4 	RXTXLostPackets 	0
scalar IntersectionExampleScenario.node[712].nic.mac1609_4 	TotalLostPackets 	0
scalar IntersectionExampleScenario.node[712].nic.mac1609_4 	DroppedPacketsInMac 	0
scalar IntersectionExampleScenario.node[712].nic.mac1609_4 	TooLittleTime 	0
scalar IntersectionExampleScenario.node[712].nic.mac1609_4 	TimesIntoBackoff 	0
scalar IntersectionExampleScenario.node[712].nic.mac1609_4 	SlotsBackoff 	0
scalar IntersectionExampleScenario.node[712].nic.mac1609_4 	NumInternalContention 	0
scalar IntersectionExampleScenario.node[712].nic.mac1609_4 	totalBusyTime 	0
scalar IntersectionExampleScenario.node[712].veinsmobility 	startTime 	1794
scalar IntersectionExampleScenario.node[712].veinsmobility 	totalTime 	6
scalar IntersectionExampleScenario.node[712].veinsmobility 	stopTime 	1800
scalar IntersectionExampleScenario.node[712].veinsmobility 	minSpeed 	5.6500000953674
scalar IntersectionExampleScenario.node[712].veinsmobility 	maxSpeed 	15.64999961853
scalar IntersectionExampleScenario.node[712].veinsmobility 	totalDistance 	71.19677734375
scalar IntersectionExampleScenario.node[712].veinsmobility 	totalCO2Emission 	37.048163392275
