file 31371809 1591389107                                        
version 2
run nodebug-0-20200605-16:25:55-20012
attr configname nodebug
attr datetime 20200605-16:25:55
attr experiment nodebug
attr inifile omnetpp.ini
attr iterationvars ""
attr iterationvars2 $repetition=0
attr measurement ""
attr network "\"org.car2x.veins.modules.application.ExtTraCIScenarioManagerLaunchd.IntersectionExampleScenario\""
attr processid 20012
attr repetition 0
attr replication #0
attr resultdir results
attr runnumber 0
attr seedset 0
param **.coreDebug false
param **.debug false
param *.**.nic.mac1609_4.bitrate 18Mbps
param *.**.nic.mac1609_4.txPower 20mW
param *.**.nic.mac1609_4.useServiceChannel false
param *.**.nic.phy80211p.analogueModels "xmldoc(\"config.xml\")"
param *.**.nic.phy80211p.decider "xmldoc(\"config.xml\")"
param *.**.nic.phy80211p.sensitivity -89dBm
param *.**.nic.phy80211p.thermalNoise -110dBm
param *.**.nic.phy80211p.usePropagationDelay true
param *.**.nic.phy80211p.useThermalNoise true
param *.annotations.draw false
param *.connectionManager.alpha 2.0
param *.connectionManager.carrierFrequency "5.890e9 Hz"
param *.connectionManager.pMax 20mW
param *.connectionManager.sat -89dBm
param *.connectionManager.sendDirect true
param *.manager.autoShutdown true
param *.manager.host "\"localhost\""
param *.manager.launchConfig "xmldoc(\"paramics.launchd.xml\")"
param *.manager.margin 25
param *.manager.moduleDisplayString "\"\""
param *.manager.moduleName "\"node\""
param *.manager.moduleType "\"org.car2x.veins.nodes.Car\""
param *.manager.port 9999
param *.manager.updateInterval 250ms
param *.node[*0].veinsmobility.accidentCount 0
param *.node[*0].veinsmobility.accidentDuration 30s
param *.node[*0].veinsmobility.accidentStart 75s
param *.node[*].appl.LiderSelectZoneRadio 55.0
param *.node[*].appl.ShareDataZoneRadio 110.0
param *.node[*].appl.TiempoSemaforo 30.0
param *.node[*].appl.beaconInterval 1s
param *.node[*].appl.beaconPriority 3
param *.node[*].appl.dataOnSch false
param *.node[*].appl.dataPriority 2
param *.node[*].appl.debug false
param *.node[*].appl.headerLength "256 bit"
param *.node[*].appl.maxOffset 0.005s
param *.node[*].appl.sendBeacons false
param *.node[*].appl.sendData true
param *.node[*].applType "\"Dummy\""
param *.node[*].mobilityType "\"TraCIMobility\""
param *.node[*].mobilityType.debug true
param *.node[*].veinsmobility.x 0
param *.node[*].veinsmobility.y 0
param *.node[*].veinsmobility.z 1.895
param *.node[*].veinsmobilityType "\"org.car2x.veins.modules.mobility.traci.TraCIMobility\""
param *.node[*].veinsmobilityType.debug true
param *.playgroundSizeX 8500m
param *.playgroundSizeY 8500m
param *.playgroundSizeZ 50m
param *.world.use2D false
param *.world.useTorus false

vector 0  IntersectionExampleScenario.manager  vehiclesinsim  ETV
attr type  int
vector 1  IntersectionExampleScenario.manager  realtime  ETV
attr type  int
attr unit  s
vector 4  IntersectionExampleScenario.node[0].veinsmobility  posx  ETV
vector 5  IntersectionExampleScenario.node[0].veinsmobility  posy  ETV
vector 6  IntersectionExampleScenario.node[0].veinsmobility  speed  ETV
vector 7  IntersectionExampleScenario.node[0].veinsmobility  acceleration  ETV
vector 8  IntersectionExampleScenario.node[0].veinsmobility  co2emission  ETV
vector 11  IntersectionExampleScenario.node[1].veinsmobility  posx  ETV
vector 12  IntersectionExampleScenario.node[1].veinsmobility  posy  ETV
vector 13  IntersectionExampleScenario.node[1].veinsmobility  speed  ETV
vector 14  IntersectionExampleScenario.node[1].veinsmobility  acceleration  ETV
vector 15  IntersectionExampleScenario.node[1].veinsmobility  co2emission  ETV
vector 18  IntersectionExampleScenario.node[2].veinsmobility  posx  ETV
vector 19  IntersectionExampleScenario.node[2].veinsmobility  posy  ETV
vector 25  IntersectionExampleScenario.node[3].veinsmobility  posx  ETV
vector 26  IntersectionExampleScenario.node[3].veinsmobility  posy  ETV
vector 20  IntersectionExampleScenario.node[2].veinsmobility  speed  ETV
vector 27  IntersectionExampleScenario.node[3].veinsmobility  speed  ETV
vector 21  IntersectionExampleScenario.node[2].veinsmobility  acceleration  ETV
vector 22  IntersectionExampleScenario.node[2].veinsmobility  co2emission  ETV
vector 28  IntersectionExampleScenario.node[3].veinsmobility  acceleration  ETV
vector 29  IntersectionExampleScenario.node[3].veinsmobility  co2emission  ETV
vector 32  IntersectionExampleScenario.node[4].veinsmobility  posx  ETV
vector 33  IntersectionExampleScenario.node[4].veinsmobility  posy  ETV
vector 34  IntersectionExampleScenario.node[4].veinsmobility  speed  ETV
vector 35  IntersectionExampleScenario.node[4].veinsmobility  acceleration  ETV
vector 36  IntersectionExampleScenario.node[4].veinsmobility  co2emission  ETV
vector 39  IntersectionExampleScenario.node[5].veinsmobility  posx  ETV
vector 40  IntersectionExampleScenario.node[5].veinsmobility  posy  ETV
vector 41  IntersectionExampleScenario.node[5].veinsmobility  speed  ETV
vector 42  IntersectionExampleScenario.node[5].veinsmobility  acceleration  ETV
vector 43  IntersectionExampleScenario.node[5].veinsmobility  co2emission  ETV
vector 46  IntersectionExampleScenario.node[6].veinsmobility  posx  ETV
vector 47  IntersectionExampleScenario.node[6].veinsmobility  posy  ETV
vector 48  IntersectionExampleScenario.node[6].veinsmobility  speed  ETV
vector 49  IntersectionExampleScenario.node[6].veinsmobility  acceleration  ETV
vector 50  IntersectionExampleScenario.node[6].veinsmobility  co2emission  ETV
vector 53  IntersectionExampleScenario.node[7].veinsmobility  posx  ETV
vector 54  IntersectionExampleScenario.node[7].veinsmobility  posy  ETV
vector 55  IntersectionExampleScenario.node[7].veinsmobility  speed  ETV
vector 56  IntersectionExampleScenario.node[7].veinsmobility  acceleration  ETV
vector 57  IntersectionExampleScenario.node[7].veinsmobility  co2emission  ETV
vector 60  IntersectionExampleScenario.node[8].veinsmobility  posx  ETV
vector 61  IntersectionExampleScenario.node[8].veinsmobility  posy  ETV
vector 62  IntersectionExampleScenario.node[8].veinsmobility  speed  ETV
vector 63  IntersectionExampleScenario.node[8].veinsmobility  acceleration  ETV
vector 64  IntersectionExampleScenario.node[8].veinsmobility  co2emission  ETV
vector 67  IntersectionExampleScenario.node[9].veinsmobility  posx  ETV
vector 68  IntersectionExampleScenario.node[9].veinsmobility  posy  ETV
vector 69  IntersectionExampleScenario.node[9].veinsmobility  speed  ETV
vector 70  IntersectionExampleScenario.node[9].veinsmobility  acceleration  ETV
vector 71  IntersectionExampleScenario.node[9].veinsmobility  co2emission  ETV
vector 74  IntersectionExampleScenario.node[10].veinsmobility  posx  ETV
vector 75  IntersectionExampleScenario.node[10].veinsmobility  posy  ETV
vector 76  IntersectionExampleScenario.node[10].veinsmobility  speed  ETV
vector 77  IntersectionExampleScenario.node[10].veinsmobility  acceleration  ETV
vector 78  IntersectionExampleScenario.node[10].veinsmobility  co2emission  ETV
vector 81  IntersectionExampleScenario.node[11].veinsmobility  posx  ETV
vector 82  IntersectionExampleScenario.node[11].veinsmobility  posy  ETV
vector 83  IntersectionExampleScenario.node[11].veinsmobility  speed  ETV
vector 84  IntersectionExampleScenario.node[11].veinsmobility  acceleration  ETV
vector 85  IntersectionExampleScenario.node[11].veinsmobility  co2emission  ETV
vector 88  IntersectionExampleScenario.node[12].veinsmobility  posx  ETV
vector 89  IntersectionExampleScenario.node[12].veinsmobility  posy  ETV
vector 90  IntersectionExampleScenario.node[12].veinsmobility  speed  ETV
vector 91  IntersectionExampleScenario.node[12].veinsmobility  acceleration  ETV
vector 92  IntersectionExampleScenario.node[12].veinsmobility  co2emission  ETV
vector 95  IntersectionExampleScenario.node[13].veinsmobility  posx  ETV
vector 96  IntersectionExampleScenario.node[13].veinsmobility  posy  ETV
vector 97  IntersectionExampleScenario.node[13].veinsmobility  speed  ETV
vector 98  IntersectionExampleScenario.node[13].veinsmobility  acceleration  ETV
vector 99  IntersectionExampleScenario.node[13].veinsmobility  co2emission  ETV
8	8271 4291 14 2468 2.25 41.75 159 0.973 11.810082123732 508.49538687659 2854.0891032743
7	12562 4002 14 2468 2.25 41.75 159 -3.5987892150879 2.5 38.511121749878 289.97413352837
6	16564 4183 11 2468 2 41.75 160 5.6500000953674 15.875 2187.4261054993 31251.807394893
5	20747 4517 8 2468 1.75 41.75 161 184.17810058594 483.33880615234 63994.011108398 27176069.18173
4	25264 4518 8 2468 1.75 41.75 161 486.85000610352 733.91084289551 86585.107162476 47495228.222459
22	29782 4405 70 2594 5.25 43.25 153 0.97223939240464 11.648172402475 471.80125096764 2469.8143218926
21	34187 3927 70 2594 5.25 43.25 153 -3.5467910766602 2.5 38.680875778198 197.15975724438
20	38114 4300 61 2594 5 43.25 154 5.6500000953674 15.64999961853 2210.3583621979 32381.155842395
19	42414 4537 52 2594 4.75 43.25 155 238.41052246094 785.82187652588 80957.144294739 46372668.315127
18	46951 4555 52 2594 4.75 43.25 155 483.14999389648 483.14999389648 74888.249053955 36182257.073337
15	51506 4553 42 2699 4.25 44.5 162 0.973 11.810082123732 524.63187338158 2911.6859571668
14	56059 4234 42 2699 4.25 44.5 162 -4.5 2.5 40.378400802612 287.79937934847
13	60293 4457 37 2699 4 44.5 163 5.6500000953674 15.875 2254.8588018417 32741.316994308
12	64750 4775 32 2699 3.75 44.5 164 166.078125 483.14999389648 64055.637115479 27015497.947935
11	69525 4802 32 2699 3.75 44.5 164 486.85000610352 732.51347351074 87745.703186035 47854361.046333
vector 102  IntersectionExampleScenario.node[14].veinsmobility  posx  ETV
vector 103  IntersectionExampleScenario.node[14].veinsmobility  posy  ETV
36	74477 4491 164 2888 7.75 46.75 157 0.973 11.990504229548 516.39678317475 2979.2178959479
35	78968 4024 164 2888 7.75 46.75 157 -4.4651679992676 2.5 39.869146347046 243.96709056676
34	82992 4421 153 2888 7.5 46.75 158 5.6500000953674 16.125 2299.2307863235 34180.927602093
33	87413 4675 142 2888 7.25 46.75 159 165.484375 734.77452087402 69874.319717407 35227263.152485
32	92088 4703 142 2888 7.25 46.75 159 486.85000610352 486.85000610352 77409.150970459 37686645.622436
vector 104  IntersectionExampleScenario.node[14].veinsmobility  speed  ETV
vector 109  IntersectionExampleScenario.node[15].veinsmobility  posx  ETV
vector 110  IntersectionExampleScenario.node[15].veinsmobility  posy  ETV
vector 105  IntersectionExampleScenario.node[14].veinsmobility  acceleration  ETV
vector 106  IntersectionExampleScenario.node[14].veinsmobility  co2emission  ETV
vector 111  IntersectionExampleScenario.node[15].veinsmobility  speed  ETV
vector 112  IntersectionExampleScenario.node[15].veinsmobility  acceleration  ETV
vector 113  IntersectionExampleScenario.node[15].veinsmobility  co2emission  ETV
vector 116  IntersectionExampleScenario.node[16].veinsmobility  posx  ETV
vector 117  IntersectionExampleScenario.node[16].veinsmobility  posy  ETV
vector 123  IntersectionExampleScenario.node[17].veinsmobility  posx  ETV
vector 124  IntersectionExampleScenario.node[17].veinsmobility  posy  ETV
vector 118  IntersectionExampleScenario.node[16].veinsmobility  speed  ETV
vector 119  IntersectionExampleScenario.node[16].veinsmobility  acceleration  ETV
vector 120  IntersectionExampleScenario.node[16].veinsmobility  co2emission  ETV
vector 125  IntersectionExampleScenario.node[17].veinsmobility  speed  ETV
vector 126  IntersectionExampleScenario.node[17].veinsmobility  acceleration  ETV
vector 127  IntersectionExampleScenario.node[17].veinsmobility  co2emission  ETV
vector 130  IntersectionExampleScenario.node[18].veinsmobility  posx  ETV
vector 131  IntersectionExampleScenario.node[18].veinsmobility  posy  ETV
vector 132  IntersectionExampleScenario.node[18].veinsmobility  speed  ETV
vector 133  IntersectionExampleScenario.node[18].veinsmobility  acceleration  ETV
vector 134  IntersectionExampleScenario.node[18].veinsmobility  co2emission  ETV
vector 137  IntersectionExampleScenario.node[19].veinsmobility  posx  ETV
vector 138  IntersectionExampleScenario.node[19].veinsmobility  posy  ETV
vector 139  IntersectionExampleScenario.node[19].veinsmobility  speed  ETV
vector 140  IntersectionExampleScenario.node[19].veinsmobility  acceleration  ETV
vector 141  IntersectionExampleScenario.node[19].veinsmobility  co2emission  ETV
vector 144  IntersectionExampleScenario.node[20].veinsmobility  posx  ETV
vector 145  IntersectionExampleScenario.node[20].veinsmobility  posy  ETV
vector 146  IntersectionExampleScenario.node[20].veinsmobility  speed  ETV
vector 147  IntersectionExampleScenario.node[20].veinsmobility  acceleration  ETV
vector 148  IntersectionExampleScenario.node[20].veinsmobility  co2emission  ETV
vector 151  IntersectionExampleScenario.node[21].veinsmobility  posx  ETV
vector 152  IntersectionExampleScenario.node[21].veinsmobility  posy  ETV
vector 153  IntersectionExampleScenario.node[21].veinsmobility  speed  ETV
vector 154  IntersectionExampleScenario.node[21].veinsmobility  acceleration  ETV
vector 155  IntersectionExampleScenario.node[21].veinsmobility  co2emission  ETV
29	99769 6378 70 4951 5.25 67.5 250 0.973 11.450879080643 609.68708031536 2865.6170938174
28	106147 5671 70 4951 5.25 67.5 250 -8.5133104324341 4 37.15309715271 480.54613942985
27	111818 6045 61 4951 5 67.5 251 0 15.375 2210.4845676422 30838.748312653
26	117863 7465 52 4951 4.75 67.5 252 483.14999389648 483.14999389648 121753.79846191 58825346.983747
25	125328 7440 52 4951 4.75 67.5 252 184.17810058594 733.24285888672 115216.83580017 56909262.144852
50	132768 5894 479 5086 14 68.75 220 0.973 11.810082123732 581.83046060051 3010.2803194531
49	138662 6302 479 5086 14 68.75 220 -3.8290073871613 2.5000004768372 39.190130233765 343.00759060614
48	144964 6280 464 5086 13.75 68.75 221 0 15.875 2187.6247338951 29093.324954983
47	151244 6610 449 5086 13.5 68.75 222 236.32397460938 483.14999389648 99141.20880127 45308227.378756
46	157854 6599 449 5086 13.5 68.75 222 184.17810058594 483.30581665039 91744.537322998 39807789.143257
vector 158  IntersectionExampleScenario.node[22].veinsmobility  posx  ETV
vector 159  IntersectionExampleScenario.node[22].veinsmobility  posy  ETV
vector 160  IntersectionExampleScenario.node[22].veinsmobility  speed  ETV
vector 161  IntersectionExampleScenario.node[22].veinsmobility  acceleration  ETV
vector 162  IntersectionExampleScenario.node[22].veinsmobility  co2emission  ETV
57	164844 5821 663 5343 17 71 217 0.973 11.810082123732 578.72445263376 2988.8570080814
56	170665 6243 663 5343 17 71 217 -4.5 2.5 38.511121749878 359.07536202077
55	176908 6165 646 5343 16.75 71 218 1.2328536510468 15.875 2226.3177446127 28914.419309029
54	183073 6539 629 5343 16.5 71 219 238.77587890625 483.14999389648 97773.284606934 44661361.191629
53	189612 6506 629 5343 16.5 71 219 171.40313720703 483.14999389648 88522.192779541 37823976.668546
64	196118 5923 820 5589 19.25 73.25 217 0.973 11.648172402475 590.00652882504 2996.5358993807
63	202041 6214 820 5589 19.25 73.25 217 -4.5 2.5000009536743 38.850629806519 362.04112204474
62	208255 6216 801 5589 19 73.25 218 2.3161790370941 15.734029769897 2284.8077602386 29609.976729273
61	214471 6553 782 5589 18.75 73.25 219 235.07385253906 483.14999389648 97578.925476074 44526044.729175
60	221024 6539 782 5589 18.75 73.25 219 160.90466308594 483.14999389648 87142.33807373 36859465.602906
vector 165  IntersectionExampleScenario.node[23].veinsmobility  posx  ETV
vector 166  IntersectionExampleScenario.node[23].veinsmobility  posy  ETV
vector 167  IntersectionExampleScenario.node[23].veinsmobility  speed  ETV
vector 168  IntersectionExampleScenario.node[23].veinsmobility  acceleration  ETV
vector 169  IntersectionExampleScenario.node[23].veinsmobility  co2emission  ETV
vector 172  IntersectionExampleScenario.node[24].veinsmobility  posx  ETV
vector 173  IntersectionExampleScenario.node[24].veinsmobility  posy  ETV
vector 174  IntersectionExampleScenario.node[24].veinsmobility  speed  ETV
vector 175  IntersectionExampleScenario.node[24].veinsmobility  acceleration  ETV
vector 176  IntersectionExampleScenario.node[24].veinsmobility  co2emission  ETV
99	228345 4344 2426 6192 41.25 78.75 151 0.973 12.099024792222 485.87697008865 2788.3993305405
98	232689 4267 2426 6192 41.25 78.75 151 -3.5903625488281 2.5 40.038900375366 219.23162132252
97	236956 4318 2405 6192 41 78.75 152 5.6500000953674 16.27499961853 2224.1042919159 33278.499076526
96	241274 4591 2384 6192 40.75 78.75 153 483.14999389648 483.14999389648 73921.949066162 35715389.240132
95	245865 4562 2384 6192 40.75 78.75 153 184.17810058594 734.92485046387 68675.788192749 34916396.204506
vector 179  IntersectionExampleScenario.node[25].veinsmobility  posx  ETV
vector 180  IntersectionExampleScenario.node[25].veinsmobility  posy  ETV
vector 181  IntersectionExampleScenario.node[25].veinsmobility  speed  ETV
vector 182  IntersectionExampleScenario.node[25].veinsmobility  acceleration  ETV
vector 183  IntersectionExampleScenario.node[25].veinsmobility  co2emission  ETV
vector 186  IntersectionExampleScenario.node[26].veinsmobility  posx  ETV
vector 187  IntersectionExampleScenario.node[26].veinsmobility  posy  ETV
vector 188  IntersectionExampleScenario.node[26].veinsmobility  speed  ETV
vector 189  IntersectionExampleScenario.node[26].veinsmobility  acceleration  ETV
vector 190  IntersectionExampleScenario.node[26].veinsmobility  co2emission  ETV
vector 193  IntersectionExampleScenario.node[27].veinsmobility  posx  ETV
vector 194  IntersectionExampleScenario.node[27].veinsmobility  posy  ETV
vector 195  IntersectionExampleScenario.node[27].veinsmobility  speed  ETV
vector 200  IntersectionExampleScenario.node[28].veinsmobility  posx  ETV
vector 201  IntersectionExampleScenario.node[28].veinsmobility  posy  ETV
vector 196  IntersectionExampleScenario.node[27].veinsmobility  acceleration  ETV
vector 197  IntersectionExampleScenario.node[27].veinsmobility  co2emission  ETV
vector 207  IntersectionExampleScenario.node[29].veinsmobility  posx  ETV
vector 208  IntersectionExampleScenario.node[29].veinsmobility  posy  ETV
vector 214  IntersectionExampleScenario.node[30].veinsmobility  posx  ETV
vector 215  IntersectionExampleScenario.node[30].veinsmobility  posy  ETV
vector 202  IntersectionExampleScenario.node[28].veinsmobility  speed  ETV
vector 203  IntersectionExampleScenario.node[28].veinsmobility  acceleration  ETV
vector 204  IntersectionExampleScenario.node[28].veinsmobility  co2emission  ETV
vector 209  IntersectionExampleScenario.node[29].veinsmobility  speed  ETV
vector 216  IntersectionExampleScenario.node[30].veinsmobility  speed  ETV
vector 221  IntersectionExampleScenario.node[31].veinsmobility  posx  ETV
vector 222  IntersectionExampleScenario.node[31].veinsmobility  posy  ETV
vector 210  IntersectionExampleScenario.node[29].veinsmobility  acceleration  ETV
vector 211  IntersectionExampleScenario.node[29].veinsmobility  co2emission  ETV
vector 217  IntersectionExampleScenario.node[30].veinsmobility  acceleration  ETV
vector 218  IntersectionExampleScenario.node[30].veinsmobility  co2emission  ETV
vector 223  IntersectionExampleScenario.node[31].veinsmobility  speed  ETV
vector 224  IntersectionExampleScenario.node[31].veinsmobility  acceleration  ETV
vector 225  IntersectionExampleScenario.node[31].veinsmobility  co2emission  ETV
vector 228  IntersectionExampleScenario.node[32].veinsmobility  posx  ETV
vector 229  IntersectionExampleScenario.node[32].veinsmobility  posy  ETV
vector 230  IntersectionExampleScenario.node[32].veinsmobility  speed  ETV
113	253390 4915 2984 7370 47.75 88.5 164 0.973 11.200708441096 489.18947163344 2474.8940533021
112	258305 4338 2984 7370 47.75 88.5 164 -3.4308643341064 2.5 35.795072555542 256.38298959435
111	262643 4820 2959 7370 47.5 88.5 165 5.6500000953674 15.02499961853 2178.6401219368 29893.897753536
110	267463 5135 2934 7370 47.25 88.5 166 238.04266357422 483.14999389648 71761.262145996 31969586.859877
109	272598 5123 2934 7370 47.25 88.5 166 184.17810058594 483.14999389648 66009.255310059 28025619.310913
vector 231  IntersectionExampleScenario.node[32].veinsmobility  acceleration  ETV
vector 232  IntersectionExampleScenario.node[32].veinsmobility  co2emission  ETV
127	277886 4690 3459 7796 52.5 91.25 156 0.973 11.54047740176 466.06720633066 2375.2679757888
126	282576 4378 3459 7796 52.5 91.25 156 -3.0156860351562 2.5 37.32285118103 182.74846951905
125	286954 4632 3433 7796 52.25 91.25 157 5.6500000953674 15.5 2216.6179904938 31875.978090589
124	291586 4897 3406 7796 52 91.25 158 483.14999389648 483.14999389648 76337.699035645 36882558.823143
123	296483 4862 3406 7796 52 91.25 158 184.17810058594 733.22123718262 70906.286376953 36012602.022662
vector 235  IntersectionExampleScenario.node[33].veinsmobility  posx  ETV
vector 236  IntersectionExampleScenario.node[33].veinsmobility  posy  ETV
vector 242  IntersectionExampleScenario.node[34].veinsmobility  posx  ETV
vector 243  IntersectionExampleScenario.node[34].veinsmobility  posy  ETV
vector 237  IntersectionExampleScenario.node[33].veinsmobility  speed  ETV
vector 238  IntersectionExampleScenario.node[33].veinsmobility  acceleration  ETV
vector 239  IntersectionExampleScenario.node[33].veinsmobility  co2emission  ETV
vector 244  IntersectionExampleScenario.node[34].veinsmobility  speed  ETV
vector 245  IntersectionExampleScenario.node[34].veinsmobility  acceleration  ETV
vector 246  IntersectionExampleScenario.node[34].veinsmobility  co2emission  ETV
134	302127 4906 3779 8564 55.75 96.25 163 0.973 11.450879080643 488.43632126998 2506.9588203744
133	307033 4398 3779 8564 55.75 96.25 163 -3.8558197021484 2.5 36.813589096069 225.34548512556
132	311431 4795 3754 8564 55.5 96.25 164 5.6500000953674 15.375 2253.8624362946 31790.999235574
131	316226 5110 3729 8564 55.25 96.25 165 483.14999389648 734.40101623535 88408.067367554 48368441.227277
130	321336 5084 3729 8564 55.25 96.25 165 172.9296875 487.02380371094 64958.662384033 27546121.341749
vector 249  IntersectionExampleScenario.node[35].veinsmobility  posx  ETV
vector 250  IntersectionExampleScenario.node[35].veinsmobility  posy  ETV
vector 251  IntersectionExampleScenario.node[35].veinsmobility  speed  ETV
vector 256  IntersectionExampleScenario.node[36].veinsmobility  posx  ETV
vector 257  IntersectionExampleScenario.node[36].veinsmobility  posy  ETV
vector 252  IntersectionExampleScenario.node[35].veinsmobility  acceleration  ETV
vector 253  IntersectionExampleScenario.node[35].veinsmobility  co2emission  ETV
vector 258  IntersectionExampleScenario.node[36].veinsmobility  speed  ETV
vector 263  IntersectionExampleScenario.node[37].veinsmobility  posx  ETV
vector 264  IntersectionExampleScenario.node[37].veinsmobility  posy  ETV
vector 259  IntersectionExampleScenario.node[36].veinsmobility  acceleration  ETV
vector 260  IntersectionExampleScenario.node[36].veinsmobility  co2emission  ETV
vector 270  IntersectionExampleScenario.node[38].veinsmobility  posx  ETV
vector 271  IntersectionExampleScenario.node[38].veinsmobility  posy  ETV
vector 265  IntersectionExampleScenario.node[37].veinsmobility  speed  ETV
vector 266  IntersectionExampleScenario.node[37].veinsmobility  acceleration  ETV
vector 267  IntersectionExampleScenario.node[37].veinsmobility  co2emission  ETV
vector 272  IntersectionExampleScenario.node[38].veinsmobility  speed  ETV
vector 273  IntersectionExampleScenario.node[38].veinsmobility  acceleration  ETV
vector 274  IntersectionExampleScenario.node[38].veinsmobility  co2emission  ETV
vector 277  IntersectionExampleScenario.node[39].veinsmobility  posx  ETV
vector 278  IntersectionExampleScenario.node[39].veinsmobility  posy  ETV
vector 279  IntersectionExampleScenario.node[39].veinsmobility  speed  ETV
vector 284  IntersectionExampleScenario.node[40].veinsmobility  posx  ETV
vector 285  IntersectionExampleScenario.node[40].veinsmobility  posy  ETV
vector 280  IntersectionExampleScenario.node[39].veinsmobility  acceleration  ETV
vector 281  IntersectionExampleScenario.node[39].veinsmobility  co2emission  ETV
vector 286  IntersectionExampleScenario.node[40].veinsmobility  speed  ETV
vector 291  IntersectionExampleScenario.node[41].veinsmobility  posx  ETV
vector 292  IntersectionExampleScenario.node[41].veinsmobility  posy  ETV
vector 287  IntersectionExampleScenario.node[40].veinsmobility  acceleration  ETV
vector 288  IntersectionExampleScenario.node[40].veinsmobility  co2emission  ETV
vector 293  IntersectionExampleScenario.node[41].veinsmobility  speed  ETV
vector 294  IntersectionExampleScenario.node[41].veinsmobility  acceleration  ETV
vector 295  IntersectionExampleScenario.node[41].veinsmobility  co2emission  ETV
vector 298  IntersectionExampleScenario.node[42].veinsmobility  posx  ETV
vector 299  IntersectionExampleScenario.node[42].veinsmobility  posy  ETV
vector 300  IntersectionExampleScenario.node[42].veinsmobility  speed  ETV
vector 301  IntersectionExampleScenario.node[42].veinsmobility  acceleration  ETV
vector 302  IntersectionExampleScenario.node[42].veinsmobility  co2emission  ETV
43	329548 8863 267 9669 10 103 373 0.973 11.648172402475 749.38850396053 3137.8337591777
42	338411 7615 267 9669 10 103 373 -6.9388580322266 4 39.869146347046 475.61266746556
41	346026 7953 254 9669 9.75 103 374 0 15.686430931091 2181.8850235939 31271.676285301
40	353979 11140 241 9669 9.5 103 375 486.85000610352 733.96138000488 190623.11701965 98047334.952267
39	365119 11202 241 9669 9.5 103 375 486.63604736328 785.82187652588 198732.06484222 107546555.20034
71	376321 8345 1223 9963 24.5 104.5 321 0.973 11.54047740176 673.28114292804 2893.3745747059
70	384666 8648 1223 9963 24.5 104.5 321 -3.8792238235474 2.5 36.98334312439 337.46570924445
69	393314 8543 1202 9963 24.25 104.5 322 0 15.5 2209.0523859542 29018.855330906
68	401857 9708 1181 9963 24 104.5 323 486.85000610352 486.85000610352 157252.55197144 76558405.887087
67	411565 9532 1181 9963 24 104.5 323 238.18670654297 785.82187652588 166378.01136017 89911868.297337
vector 305  IntersectionExampleScenario.node[43].veinsmobility  posx  ETV
vector 306  IntersectionExampleScenario.node[43].veinsmobility  posy  ETV
vector 307  IntersectionExampleScenario.node[43].veinsmobility  speed  ETV
vector 308  IntersectionExampleScenario.node[43].veinsmobility  acceleration  ETV
vector 309  IntersectionExampleScenario.node[43].veinsmobility  co2emission  ETV
106	421488 6800 2934 10522 47.25 107.25 241 0.973 11.810082123732 614.92799102038 3101.4899938523
105	428288 7146 2934 10522 47.25 107.25 241 -3.949492931366 2.5 39.699392318726 366.05049323143
104	435434 7167 2911 10522 47 107.25 242 0 15.875 2194.2733714208 29102.860655225
103	442601 7564 2888 10522 46.75 107.25 243 486.85000610352 735.08885192871 126453.0987854 66873424.980833
102	450165 7555 2888 10522 46.75 107.25 243 486.75457763672 785.82187652588 134705.84299469 76574993.144838
vector 312  IntersectionExampleScenario.node[44].veinsmobility  posx  ETV
vector 313  IntersectionExampleScenario.node[44].veinsmobility  posy  ETV
vector 314  IntersectionExampleScenario.node[44].veinsmobility  speed  ETV
vector 315  IntersectionExampleScenario.node[44].veinsmobility  acceleration  ETV
vector 316  IntersectionExampleScenario.node[44].veinsmobility  co2emission  ETV
120	458111 6529 3433 11019 52.25 109.75 231 0.973 11.648172402475 580.11407297637 2853.1923468997
119	464640 6937 3433 11019 52.25 109.75 231 -3.9450857639313 2.5 37.832105636597 335.29457625985
118	471577 6948 3406 11019 52 109.75 232 0 15.64999961853 2191.7745795958 28023.060473711
117	478525 7276 3381 11019 51.75 109.75 233 486.85000610352 734.92495727539 121800.84326172 64751123.258093
116	485801 7254 3381 11019 51.75 109.75 233 486.65927124023 785.82187652588 130377.24373627 74811576.078792
141	493055 5445 4366 11169 62 110.5 195 0.973 11.648172402475 543.80925511161 2898.138894974
140	498500 5698 4366 11169 62 110.5 195 -2.1323318481445 2.5000019073486 38.511121749878 287.0022217985
139	504198 5907 4341 11169 61.75 110.5 196 2.0064573287964 15.64999961853 2211.8851354122 29134.096755818
138	510105 6174 4316 11169 61.5 110.5 197 486.85000610352 486.85000610352 95909.451202393 46693516.90327
137	516279 6163 4316 11169 61.5 110.5 197 238.40948486328 785.82187652588 103575.58039093 58584359.120231
vector 319  IntersectionExampleScenario.node[45].veinsmobility  posx  ETV
vector 320  IntersectionExampleScenario.node[45].veinsmobility  posy  ETV
vector 321  IntersectionExampleScenario.node[45].veinsmobility  speed  ETV
vector 322  IntersectionExampleScenario.node[45].veinsmobility  acceleration  ETV
vector 323  IntersectionExampleScenario.node[45].veinsmobility  co2emission  ETV
vector 326  IntersectionExampleScenario.node[46].veinsmobility  posx  ETV
vector 327  IntersectionExampleScenario.node[46].veinsmobility  posy  ETV
162	522983 5030 5198 11711 69.75 113.25 175 0.973 12.099024792222 556.71354264092 3212.2976798983
161	528013 4977 5198 11711 69.75 113.25 175 -3.1452980041504 2.5000019073486 41.227170944214 334.10683520128
160	532990 5222 5169 11711 69.5 113.25 176 5.6500000953674 16.27499961853 2189.8058686256 29654.725275661
159	538212 5557 5140 11711 69.25 113.25 177 486.85000610352 734.52383422852 94119.613922119 50994977.070189
158	543769 5560 5140 11711 69.25 113.25 177 486.85000610352 785.82187652588 100916.45543671 59269780.490551
vector 328  IntersectionExampleScenario.node[46].veinsmobility  speed  ETV
vector 329  IntersectionExampleScenario.node[46].veinsmobility  acceleration  ETV
vector 330  IntersectionExampleScenario.node[46].veinsmobility  co2emission  ETV
169	549570 4887 5808 12246 75.25 116 164 0.973 11.093806525473 479.22994309857 2569.4959541618
168	554457 4875 5808 12246 75.25 116 164 -3.0932769775391 2.5 34.77654838562 207.74821364234
167	559332 4996 5780 12246 75 116 165 5.6500000953674 14.875 2221.3596372604 30363.611006945
166	564328 5256 5751 12246 74.75 116 166 486.85000610352 486.85000610352 80817.101013184 39345806.121537
165	569584 5239 5751 12246 74.75 116 166 235.26116943359 785.82187652588 86332.833129883 49265831.263111
vector 333  IntersectionExampleScenario.node[47].veinsmobility  posx  ETV
vector 334  IntersectionExampleScenario.node[47].veinsmobility  posy  ETV
vector 335  IntersectionExampleScenario.node[47].veinsmobility  speed  ETV
vector 340  IntersectionExampleScenario.node[48].veinsmobility  posx  ETV
vector 341  IntersectionExampleScenario.node[48].veinsmobility  posy  ETV
vector 336  IntersectionExampleScenario.node[47].veinsmobility  acceleration  ETV
vector 337  IntersectionExampleScenario.node[47].veinsmobility  co2emission  ETV
vector 342  IntersectionExampleScenario.node[48].veinsmobility  speed  ETV
vector 343  IntersectionExampleScenario.node[48].veinsmobility  acceleration  ETV
vector 344  IntersectionExampleScenario.node[48].veinsmobility  co2emission  ETV
vector 347  IntersectionExampleScenario.node[49].veinsmobility  posx  ETV
vector 348  IntersectionExampleScenario.node[49].veinsmobility  posy  ETV
vector 349  IntersectionExampleScenario.node[49].veinsmobility  speed  ETV
vector 354  IntersectionExampleScenario.node[50].veinsmobility  posx  ETV
vector 355  IntersectionExampleScenario.node[50].veinsmobility  posy  ETV
vector 350  IntersectionExampleScenario.node[49].veinsmobility  acceleration  ETV
vector 351  IntersectionExampleScenario.node[49].veinsmobility  co2emission  ETV
vector 356  IntersectionExampleScenario.node[50].veinsmobility  speed  ETV
vector 357  IntersectionExampleScenario.node[50].veinsmobility  acceleration  ETV
vector 358  IntersectionExampleScenario.node[50].veinsmobility  co2emission  ETV
vector 361  IntersectionExampleScenario.node[51].veinsmobility  posx  ETV
vector 362  IntersectionExampleScenario.node[51].veinsmobility  posy  ETV
vector 363  IntersectionExampleScenario.node[51].veinsmobility  speed  ETV
vector 364  IntersectionExampleScenario.node[51].veinsmobility  acceleration  ETV
vector 365  IntersectionExampleScenario.node[51].veinsmobility  co2emission  ETV
183	576778 4957 6797 13833 84.25 124 160 0.973 11.648172402475 503.77316915923 2746.0036158509
182	581735 4828 6797 13833 84.25 124 160 -3.3943271636963 2.5 38.001859664917 279.56606642638
181	586563 4838 6768 13833 84 124 161 5.6500000953674 15.64999961853 2182.0669579506 30898.746875742
180	591401 5187 6739 13833 83.75 124 162 486.85000610352 732.72926330566 87076.926681519 47729650.111606
179	596588 5192 6739 13833 83.75 124 162 486.81286621094 785.82187652588 92719.522712708 54813540.539295
232	601780 4755 7409 14416 88.75 126.75 153 0.973 11.36141391502 487.01279145604 2687.0792690079
231	606535 4421 7409 14416 88.75 126.75 153 -4.5 2.5 38.341367721558 287.91311128315
230	610956 4655 7370 14416 88.5 126.75 154 5.6500000953674 15.623846054077 2053.5641283989 28728.613152774
229	615611 4979 7330 14416 88.25 126.75 155 486.85000610352 733.38273620605 83667.359741211 46072243.390747
228	620590 5000 7330 14416 88.25 126.75 155 486.84805297852 753.11719512939 86692.362915039 49785704.895206
vector 368  IntersectionExampleScenario.node[52].veinsmobility  posx  ETV
vector 369  IntersectionExampleScenario.node[52].veinsmobility  posy  ETV
vector 375  IntersectionExampleScenario.node[53].veinsmobility  posx  ETV
vector 376  IntersectionExampleScenario.node[53].veinsmobility  posy  ETV
vector 370  IntersectionExampleScenario.node[52].veinsmobility  speed  ETV
vector 377  IntersectionExampleScenario.node[53].veinsmobility  speed  ETV
211	626042 5099 7213 14738 87.5 128.25 164 0.973 11.093806525473 491.34631283801 2433.5089785551
210	631141 4974 7213 14738 87.5 128.25 164 -4.5 2.5 36.134572982788 246.90606986918
209	636115 5111 7176 14738 87.25 128.25 165 5.2750000953674 14.875 2181.994166851 29888.103891469
208	641226 5354 7139 14738 87 128.25 166 486.85000610352 486.85000610352 80817.101013184 39345806.121537
207	646580 5317 7139 14738 87 128.25 166 237.05657958984 777.86563873291 87198.626693726 50187507.843727
vector 371  IntersectionExampleScenario.node[52].veinsmobility  acceleration  ETV
vector 372  IntersectionExampleScenario.node[52].veinsmobility  co2emission  ETV
vector 378  IntersectionExampleScenario.node[53].veinsmobility  acceleration  ETV
vector 379  IntersectionExampleScenario.node[53].veinsmobility  co2emission  ETV
197	652227 5191 7106 14956 86.75 129.25 171 0.96705531868344 11.36141391502 533.51133439732 2746.8930381014
196	657418 5187 7106 14956 86.75 129.25 171 -3.2851600646973 2.5 42.245687484741 263.27986664925
195	662605 5250 7074 14956 86.5 129.25 172 5.6136965751648 16.227737426758 2242.1729154587 31430.340730478
194	667855 5576 7041 14956 86.25 129.25 173 486.85000610352 731.96295166016 91903.297515869 49726942.001378
193	673431 5573 7041 14956 86.25 129.25 173 486.85000610352 801.41563415527 102036.32410431 62462101.217733
vector 382  IntersectionExampleScenario.node[54].veinsmobility  posx  ETV
vector 383  IntersectionExampleScenario.node[54].veinsmobility  posy  ETV
vector 384  IntersectionExampleScenario.node[54].veinsmobility  speed  ETV
vector 385  IntersectionExampleScenario.node[54].veinsmobility  acceleration  ETV
vector 386  IntersectionExampleScenario.node[54].veinsmobility  co2emission  ETV
204	679395 5560 7176 15480 87.25 131.75 179 0.973 11.36141391502 540.38544407539 2689.6541145292
203	684955 5544 7176 15480 87.25 131.75 179 -4.5 2.5 39.869146347046 267.01110977138
202	690499 5554 7139 15480 87 131.75 180 5.6500000953674 15.747435569763 2318.6054191589 32066.993705287
201	696053 5843 7106 15480 86.75 131.75 181 486.85000610352 735.27447509766 96261.498245239 52170894.741437
200	701896 5829 7106 15480 86.75 131.75 181 486.85000610352 817.36251068115 107648.37439728 66643886.203794
vector 389  IntersectionExampleScenario.node[55].veinsmobility  posx  ETV
vector 390  IntersectionExampleScenario.node[55].veinsmobility  posy  ETV
vector 391  IntersectionExampleScenario.node[55].veinsmobility  speed  ETV
vector 392  IntersectionExampleScenario.node[55].veinsmobility  acceleration  ETV
vector 393  IntersectionExampleScenario.node[55].veinsmobility  co2emission  ETV
vector 396  IntersectionExampleScenario.node[56].veinsmobility  posx  ETV
vector 397  IntersectionExampleScenario.node[56].veinsmobility  posy  ETV
vector 403  IntersectionExampleScenario.node[57].veinsmobility  posx  ETV
vector 404  IntersectionExampleScenario.node[57].veinsmobility  posy  ETV
239	708416 5087 7987 15738 92.5 133 163 0.973 11.90022389248 522.57503950303 2858.064054205
238	713503 4951 7987 15738 92.5 133 163 -4.5 2.5 40.208654403687 259.41846362819
237	718454 5038 7946 15738 92.25 133 164 5.6500000953674 16 2300.5438623428 33377.738059921
236	723492 5348 7907 15738 92 133 165 235.77392578125 486.85000610352 72090.757080078 32463223.822186
235	728840 5350 7907 15738 92 133 165 483.12557983398 807.57730865479 95880.961990356 57844389.930956
vector 398  IntersectionExampleScenario.node[56].veinsmobility  speed  ETV
vector 405  IntersectionExampleScenario.node[57].veinsmobility  speed  ETV
vector 399  IntersectionExampleScenario.node[56].veinsmobility  acceleration  ETV
vector 400  IntersectionExampleScenario.node[56].veinsmobility  co2emission  ETV
vector 406  IntersectionExampleScenario.node[57].veinsmobility  acceleration  ETV
vector 407  IntersectionExampleScenario.node[57].veinsmobility  co2emission  ETV
vector 410  IntersectionExampleScenario.node[58].veinsmobility  posx  ETV
vector 411  IntersectionExampleScenario.node[58].veinsmobility  posy  ETV
vector 412  IntersectionExampleScenario.node[58].veinsmobility  speed  ETV
vector 413  IntersectionExampleScenario.node[58].veinsmobility  acceleration  ETV
vector 414  IntersectionExampleScenario.node[58].veinsmobility  co2emission  ETV
274	735063 5061 9123 16988 100 139 157 0.973 11.200708441096 458.50975746167 2223.9477931903
273	740124 4868 9123 16988 100 139 157 -3.2079925537109 2.5 36.643835067749 172.28822605769
272	744992 4969 9082 16988 99.75 139 158 5.6500000953674 15.02499961853 2209.5607261658 31447.887692619
271	749961 5223 9041 16988 99.5 139 159 486.85000610352 486.85000610352 77409.150970459 37686645.622436
270	755184 5189 9041 16988 99.5 139 159 238.41479492188 785.82187652588 82932.547065735 47446105.081501
vector 417  IntersectionExampleScenario.node[59].veinsmobility  posx  ETV
vector 418  IntersectionExampleScenario.node[59].veinsmobility  posy  ETV
vector 419  IntersectionExampleScenario.node[59].veinsmobility  speed  ETV
vector 420  IntersectionExampleScenario.node[59].veinsmobility  acceleration  ETV
vector 421  IntersectionExampleScenario.node[59].veinsmobility  co2emission  ETV
78	760764 11376 1403 18208 26.75 145.5 476 0.973 11.36141391502 833.12883572871 3057.890853038
77	772140 9412 1403 18208 26.75 145.5 476 -28.995338439941 4 37.492597579956 1188.1657019103
76	781552 9968 1382 18208 26.5 145.5 477 0 15.25 2181.651263237 30618.664116604
75	791520 14667 1361 18208 26.25 145.5 478 184.17810058594 483.36395263672 213351.46499634 97573971.245523
74	806187 14623 1361 18208 26.25 145.5 478 486.85000610352 734.21499633789 241078.61437988 122817021.24359
85	820810 10813 1867 18208 33.5 145.5 449 0.973 11.36141391502 802.79376604097 3018.3391969632
84	831623 9231 1867 18208 33.5 145.5 449 -7.3439340591431 4 37.32285118103 466.2801642023
83	840854 9608 1850 18208 33.25 145.5 450 0 15.25 2179.0751368999 30203.864518701
82	850462 13865 1833 18208 33 145.5 451 486.63604736328 785.82187652588 236907.54158783 126774952.52848
81	864327 13811 1833 18208 33 145.5 451 236.31317138672 483.14999389648 209549.8197937 98580021.03009
92	878138 10882 2194 18302 38.25 146 432 0.973 11.648172402475 797.69677349818 3160.25382207
91	889020 10535 2194 18302 38.25 146 432 -3.8607285022736 2.5 39.359884262085 346.90640843248
90	899555 10608 2175 18302 38 146 433 0 15.64999961853 2210.7090159031 29850.684468879
89	910163 13323 2156 18302 37.75 146 434 184.17810058594 731.87059020996 198470.76644897 94872708.777799
88	923486 13370 2156 18302 37.75 146 434 486.85000610352 486.85000610352 211292.90264893 102867950.94426
225	936856 7135 7291 18624 88 147.75 240 0.973 11.648172402475 608.77703398763 2956.9164592345
224	943991 7508 7291 18624 88 147.75 240 -3.6947979927063 2.5 39.699392318726 335.6619075126
223	951499 7545 7252 18624 87.75 147.75 241 0 15.64999961853 2190.9282829929 29273.595021972
222	959044 7852 7213 18624 87.5 147.75 242 486.81600952148 785.82187652588 133651.91614532 75752242.972219
221	966896 7863 7213 18624 87.5 147.75 242 235.44244384766 483.14999389648 108801.27124023 49978185.325022
253	974759 6030 8925 18939 98.75 149.5 204 0.973 12.099024792222 579.92196676096 3070.4443772107
252	980789 6250 8925 18939 98.75 149.5 204 -2.1353569030762 2.5 41.396924972534 323.17258179585
251	987039 6415 8888 18939 98.5 149.5 205 1.1650819778442 16.27499961853 2190.6350226402 29307.784681088
250	993454 6749 8851 18939 98.25 149.5 206 486.76092529297 785.82187652588 115773.35337067 66868606.393968
249	1000203 6748 8851 18939 98.25 149.5 206 235.75897216797 483.14999389648 91624.398742676 41745196.216736
vector 424  IntersectionExampleScenario.node[60].veinsmobility  posx  ETV
vector 425  IntersectionExampleScenario.node[60].veinsmobility  posy  ETV
176	1007101 8440 6163 19074 78.5 150.25 288 0.973 10.916047529558 619.08897990278 2582.3055978425
175	1015541 8830 6163 19074 78.5 150.25 288 -3.6970403194427 2.5 34.437047958374 311.239853332
174	1024371 8855 6134 19074 78.25 150.25 289 0 14.625 2189.9724306492 27249.717920151
173	1033226 9339 6105 19074 78 150.25 290 184.17810058594 483.14999389648 122133.75616455 53477007.161428
172	1042565 9364 6105 19074 78 150.25 290 486.85000610352 734.55528259277 149993.58377075 78765254.988748
vector 426  IntersectionExampleScenario.node[60].veinsmobility  speed  ETV
vector 427  IntersectionExampleScenario.node[60].veinsmobility  acceleration  ETV
vector 428  IntersectionExampleScenario.node[60].veinsmobility  co2emission  ETV
vector 431  IntersectionExampleScenario.node[61].veinsmobility  posx  ETV
vector 432  IntersectionExampleScenario.node[61].veinsmobility  posy  ETV
218	1052320 7657 7213 19381 87.5 152 259 0.973 11.648172402475 618.745068773 2883.1301074639
217	1059977 8002 7213 19381 87.5 152 259 -3.9487380981445 2.5 38.341367721558 333.35230090814
216	1067979 8109 7176 19381 87.25 152 260 0 15.64999961853 2184.3085242491 27763.470876696
215	1076088 8454 7139 19381 87 152 261 184.17810058594 483.16537475586 108260.00064087 46809101.718735
214	1084542 8479 7139 19381 87 152 261 486.85000610352 733.10472106934 135266.37641907 71185802.666312
281	1093021 6361 9291 19381 101 152 205 0.973 11.200708441096 560.86022465123 2684.6551556478
280	1099382 6143 9291 19381 101 152 205 -4.5 2.5000019073486 36.813589096069 372.29460033398
279	1105525 6584 9248 19381 100.75 152 206 1.5109567642212 15.02499961853 2280.5131049156 29851.63335192
278	1112109 6790 9205 19381 100.5 152 207 237.58306884766 802.70781707764 109618.01667786 62649733.331518
277	1118899 6813 9205 19381 100.5 152 207 483.14999389648 483.14999389648 100012.04873657 48320820.73665
vector 433  IntersectionExampleScenario.node[61].veinsmobility  speed  ETV
vector 434  IntersectionExampleScenario.node[61].veinsmobility  acceleration  ETV
vector 435  IntersectionExampleScenario.node[61].veinsmobility  co2emission  ETV
295	1125953 6302 9475 19831 102 154.5 211 0.973 11.200708441096 557.8694119536 2653.2309194431
294	1132255 6493 9475 19831 102 154.5 211 -2.1331901550293 2.5 37.492597579956 285.93390558446
293	1138748 6683 9428 19831 101.75 154.5 212 1.2853542566299 15.054089546204 2188.5106698275 27790.448889617
292	1145431 6984 9381 19831 101.5 154.5 213 184.17810058594 483.14999389648 86455.127532959 36914926.383689
291	1152415 7012 9381 19831 101.5 154.5 213 486.85000610352 733.85975646973 112044.71166992 59982289.477251
337	1159427 4803 12574 20006 117.75 155.5 152 0.973 12.099024792222 504.06719978623 2884.0708332769
336	1164230 4365 12574 20006 117.75 155.5 152 -3.202320098877 2.5 40.038900375366 223.85185732742
335	1168595 4829 12527 20006 117.5 155.5 153 5.6500000953674 16.27499961853 2220.630695343 32950.696211186
334	1173424 5064 12480 20006 117.25 155.5 154 235.71325683594 785.82187652588 80320.612007141 45976638.847047
333	1178488 5083 12480 20006 117.25 155.5 154 483.14999389648 483.14999389648 74405.099060059 35948823.156735
302	1183571 6536 9620 20006 102.75 155.5 212 0.973 11.450879080643 593.13576627924 2922.009321685
301	1190107 6364 9620 20006 102.75 155.5 212 -4.5 2.5000019073486 38.850629806519 392.74131088077
300	1196471 6723 9571 20006 102.5 155.5 213 1.7814080715179 15.375 2298.503105998 30111.768981479
299	1203194 7010 9522 20006 102.25 155.5 214 161.1796875 487.04736328125 84951.605010986 35920048.751759
298	1210204 7041 9522 20006 102.25 155.5 214 236.79711914062 486.85006713867 95841.035766602 43987472.501637
vector 438  IntersectionExampleScenario.node[62].veinsmobility  posx  ETV
vector 439  IntersectionExampleScenario.node[62].veinsmobility  posy  ETV
vector 440  IntersectionExampleScenario.node[62].veinsmobility  speed  ETV
vector 441  IntersectionExampleScenario.node[62].veinsmobility  acceleration  ETV
vector 442  IntersectionExampleScenario.node[62].veinsmobility  co2emission  ETV
vector 445  IntersectionExampleScenario.node[63].veinsmobility  posx  ETV
vector 446  IntersectionExampleScenario.node[63].veinsmobility  posy  ETV
vector 447  IntersectionExampleScenario.node[63].veinsmobility  speed  ETV
vector 448  IntersectionExampleScenario.node[63].veinsmobility  acceleration  ETV
vector 449  IntersectionExampleScenario.node[63].veinsmobility  co2emission  ETV
365	1218027 5112 13780 21421 123.75 163.5 160 0.973 11.648172402475 506.79696168444 2773.4755956985
364	1223139 4780 13780 21421 123.75 163.5 160 -3.657543182373 2.5 38.341367721558 284.98651723488
363	1227919 4996 13727 21421 123.5 163.5 161 5.6500000953674 15.64999961853 2189.5279750824 31143.79445304
362	1232915 5336 13674 21421 123.25 163.5 162 486.68313598633 785.82187652588 92672.336341858 54760685.229812
361	1238251 5330 13674 21421 123.25 163.5 162 235.69909667969 483.14999389648 69998.321807861 31182092.625838
vector 452  IntersectionExampleScenario.node[64].veinsmobility  posx  ETV
vector 453  IntersectionExampleScenario.node[64].veinsmobility  posy  ETV
vector 454  IntersectionExampleScenario.node[64].veinsmobility  speed  ETV
vector 455  IntersectionExampleScenario.node[64].veinsmobility  acceleration  ETV
vector 456  IntersectionExampleScenario.node[64].veinsmobility  co2emission  ETV
372	1243972 4762 14795 21789 128.5 165.5 149 0.973 11.990504229548 490.46035918768 2810.423726294
371	1248734 4703 14795 21789 128.5 165.5 149 -3.7093658447266 2.5 40.887662887573 222.50717049564
370	1253437 4713 14738 21789 128.25 165.5 150 5.6500000953674 16.391565322876 2209.9109506607 33343.495531282
369	1258150 4961 14681 21789 128 165.5 151 238.61553955078 785.82187652588 79010.331428528 45327609.133005
368	1263111 4982 14681 21789 128 165.5 151 483.14999389648 483.14999389648 72955.649078369 35248521.406928
vector 459  IntersectionExampleScenario.node[65].veinsmobility  posx  ETV
vector 460  IntersectionExampleScenario.node[65].veinsmobility  posy  ETV
vector 461  IntersectionExampleScenario.node[65].veinsmobility  speed  ETV
vector 462  IntersectionExampleScenario.node[65].veinsmobility  acceleration  ETV
vector 463  IntersectionExampleScenario.node[65].veinsmobility  co2emission  ETV
379	1268484 4975 14795 22032 128.5 166.75 154 0.973 11.648172402475 472.37063277033 2468.6221642102
378	1273459 4503 14795 22032 128.5 166.75 154 -3.3639030456543 2.5 38.511121749878 193.75141553485
377	1277962 4882 14738 22032 128.25 166.75 155 5.6500000953674 15.64999961853 2221.424943924 32483.242225398
376	1282844 5119 14681 22032 128 166.75 156 184.17810058594 734.3458404541 70055.718383789 35615242.946009
375	1287963 5148 14681 22032 128 166.75 156 486.85000610352 486.85000610352 75948.600952148 36975576.837107
386	1293111 5151 15377 22865 131.25 171 160 0.973 11.54047740176 471.60777148187 2348.704264389
385	1298262 4574 15377 22865 131.25 171 160 -2.8915061950684 2.5 37.15309715271 178.44486577693
384	1302836 5073 15324 22865 131 171 161 5.6500000953674 15.5 2271.4886350632 32623.784624227
383	1307909 5314 15271 22865 130.75 171 162 169.95465087891 732.7458190918 71546.941452026 36111494.242196
382	1313223 5345 15271 22865 130.75 171 162 486.85000610352 486.85000610352 78869.70098877 38397714.407765
vector 466  IntersectionExampleScenario.node[66].veinsmobility  posx  ETV
vector 467  IntersectionExampleScenario.node[66].veinsmobility  posy  ETV
vector 468  IntersectionExampleScenario.node[66].veinsmobility  speed  ETV
vector 469  IntersectionExampleScenario.node[66].veinsmobility  acceleration  ETV
vector 470  IntersectionExampleScenario.node[66].veinsmobility  co2emission  ETV
400	1318959 5273 15847 23515 133.5 174.25 164 0.973 11.450879080643 531.86318018422 2897.6789793992
399	1324232 4595 15847 23515 133.5 174.25 164 -4.5 2.5 38.511121749878 289.64251298434
398	1328827 5165 15793 23515 133.25 174.25 165 5.6500000953674 15.375 2305.4389009476 33149.709658196
397	1333992 5470 15738 23515 133 174.25 166 160.18048095703 486.85000610352 64514.641845703 27230181.692098
396	1339462 5472 15738 23515 133 174.25 166 236.83477783203 486.85000610352 72426.838745117 32573130.467022
vector 473  IntersectionExampleScenario.node[67].veinsmobility  posx  ETV
vector 474  IntersectionExampleScenario.node[67].veinsmobility  posy  ETV
vector 475  IntersectionExampleScenario.node[67].veinsmobility  speed  ETV
vector 476  IntersectionExampleScenario.node[67].veinsmobility  acceleration  ETV
vector 477  IntersectionExampleScenario.node[67].veinsmobility  co2emission  ETV
vector 480  IntersectionExampleScenario.node[68].veinsmobility  posx  ETV
vector 481  IntersectionExampleScenario.node[68].veinsmobility  posy  ETV
vector 482  IntersectionExampleScenario.node[68].veinsmobility  speed  ETV
vector 483  IntersectionExampleScenario.node[68].veinsmobility  acceleration  ETV
vector 484  IntersectionExampleScenario.node[68].veinsmobility  co2emission  ETV
vector 487  IntersectionExampleScenario.node[69].veinsmobility  posx  ETV
vector 488  IntersectionExampleScenario.node[69].veinsmobility  posy  ETV
vector 489  IntersectionExampleScenario.node[69].veinsmobility  speed  ETV
vector 490  IntersectionExampleScenario.node[69].veinsmobility  acceleration  ETV
vector 491  IntersectionExampleScenario.node[69].veinsmobility  co2emission  ETV
vector 494  IntersectionExampleScenario.node[70].veinsmobility  posx  ETV
vector 495  IntersectionExampleScenario.node[70].veinsmobility  posy  ETV
vector 496  IntersectionExampleScenario.node[70].veinsmobility  speed  ETV
vector 497  IntersectionExampleScenario.node[70].veinsmobility  acceleration  ETV
vector 498  IntersectionExampleScenario.node[70].veinsmobility  co2emission  ETV
428	1346498 4946 19165 26248 150.75 189.5 156 0.973 12.099024792222 517.37835945647 3003.4060516599
427	1351444 4666 19165 26248 150.75 189.5 156 -3.4799156188965 2.5 40.038900375366 302.93197667599
426	1356110 4851 19120 26248 150.5 189.5 157 5.6500000953674 16.27499961853 2177.531452179 31700.575766228
425	1360961 5195 19074 26248 150.25 189.5 158 486.85000610352 785.82187652588 90491.108894348 53542308.505041
424	1366156 5205 19074 26248 150.25 189.5 158 238.400390625 483.14999389648 68454.019989014 30545096.875753
148	1371361 13107 4470 26701 63 192.25 518 0.973 11.450879080643 875.53219469839 3116.534561135
147	1384468 11069 4470 26701 63 192.25 518 -36.822685241699 4 37.32285118103 1684.2718359534
146	1395537 11540 4443 26701 62.75 192.25 519 0 15.375 2187.2488059998 30919.271618889
145	1407077 16839 4416 26701 62.5 192.25 520 483.14999389648 734.27958679199 259846.19694519 131146124.54164
144	1423916 16811 4416 26701 62.5 192.25 520 184.17810058594 486.85000610352 233387.27441406 107140316.58207
155	1440727 13166 4600 26896 64.25 193.5 518 0.973 11.810082123732 900.5242965702 3309.1635728324
154	1453893 11203 4600 26896 64.25 193.5 518 -4.5 2.5 39.869146347046 513.83427038887
153	1465096 11629 4573 26896 64 193.5 519 0 15.875 2274.7668383718 32532.671897329
152	1476725 16850 4546 26896 63.75 193.5 520 235.55883789062 483.14999389648 243160.46768188 114908857.04104
151	1493575 16835 4546 26896 63.75 193.5 520 162.90466308594 483.14999389648 229347.36346436 103867497.08479
190	1510410 11890 6917 27164 85.25 195.25 441 0.973 12.553400930962 832.4204542969 3588.5208978408
189	1522300 11723 6917 27164 85.25 195.25 441 -3.7576763629913 2.5 42.585195541382 366.32459847242
188	1534023 11672 6886 27164 85 195.25 442 0 16.89999961853 2189.7756136041 30033.555739469
187	1545695 14466 6855 27164 84.75 195.25 443 235.88586425781 483.14999389648 206284.95281982 97192344.426364
186	1560161 14441 6855 27164 84.75 195.25 443 184.17810058594 483.14999389648 193001.52935791 86150044.68012
246	1574602 11811 8028 27632 92.75 198.5 424 0.973 11.36141391502 767.36691591619 2936.2911071619
245	1586413 11977 8028 27632 92.75 198.5 424 -3.926641702652 2.5 36.474081039429 317.82599835975
244	1598390 11822 7987 27632 92.5 198.5 425 0 15.25 2177.7640963374 27101.585056236
243	1610212 13969 7946 27632 92.25 198.5 426 238.31524658203 483.14999389648 197492.06170654 92750212.086863
242	1624181 13946 7946 27632 92.25 198.5 426 184.17810058594 483.14999389648 182783.42221069 80498214.302035
260	1638127 11653 9002 27936 99.25 200.75 407 0.973 11.200708441096 753.1719876838 2878.1217049459
259	1649780 12003 9002 27936 99.25 200.75 407 -3.738609790802 2.5 37.492597579956 323.49675224955
258	1661783 11778 8964 27936 99 200.75 408 0 15.112704277039 2189.3825762393 27592.555348712
257	1673561 13456 8925 27936 98.75 200.75 409 235.34979248047 483.14999389648 189209.57138062 88741931.684571
256	1687017 13426 8925 27936 98.75 200.75 409 184.17810058594 483.14999389648 173663.98431396 75723894.822357
267	1700443 12278 9082 28220 99.75 203 414 0.973 10.916047529558 783.83012762739 2931.7722201944
266	1712721 12631 9082 28220 99.75 203 414 -4.5 2.5 37.32285118103 412.98368922354
265	1725352 12435 9041 28220 99.5 203 415 0 15.294296264648 2282.1954456177 28714.099256517
264	1737787 13695 9002 28220 99.25 203 416 236.44586181641 483.14999389648 192649.10720825 90416952.018177
263	1751482 13652 9002 28220 99.25 203 416 160.43438720703 483.14999389648 172997.94018555 74362529.386981
288	1765134 11583 9381 28424 101.5 204.75 414 0.973 11.450879080643 806.02828618201 3170.341007664
287	1776717 11433 9381 28424 101.5 204.75 414 -4.5657272338867 2.5 37.15309715271 556.61793104649
286	1788150 11233 9336 28424 101.25 204.75 415 0 15.375 2340.0395827293 29649.674180875
285	1799383 13695 9291 28424 101 204.75 416 483.14999389648 735.33534240723 209697.96528625 106987090.15081
284	1813078 13654 9291 28424 101 204.75 416 153.0703125 487.06454467773 170871.48553467 72704471.774829
vector 501  IntersectionExampleScenario.node[71].veinsmobility  posx  ETV
vector 502  IntersectionExampleScenario.node[71].veinsmobility  posy  ETV
vector 503  IntersectionExampleScenario.node[71].veinsmobility  speed  ETV
vector 504  IntersectionExampleScenario.node[71].veinsmobility  acceleration  ETV
vector 505  IntersectionExampleScenario.node[71].veinsmobility  co2emission  ETV
309	1827123 10952 10114 28515 105.25 205.5 402 0.973 11.990504229548 802.93899774885 3391.5759798707
308	1838075 10430 10114 28515 105.25 205.5 402 -4.5 4 39.699392318726 512.35449878985
307	1848505 10683 10063 28515 105 205.5 403 0 16.125 2311.4962070435 30755.266937143
306	1859188 13332 10012 28515 104.75 205.5 404 483.14999389648 483.14999389648 195192.59753418 94307302.307278
305	1872520 13044 10012 28515 104.75 205.5 404 160.53875732422 733.57635498047 172769.61886597 78550759.407321
316	1885564 10725 10968 28748 109.5 207.5 393 0.973 11.990504229548 791.28482109351 3374.4924922801
315	1896289 10171 10968 28748 109.5 207.5 393 -6.1836500167847 3.0918273925781 40.887662887573 460.518081944
314	1906460 10368 10917 28748 109.25 207.5 394 -0.77295684814453 16.125 2289.5902869068 31132.650837204
313	1916828 13034 10866 28748 109 207.5 395 483.14999389648 483.14999389648 190844.24758911 92206397.057859
312	1929862 12989 10866 28748 109 207.5 395 167.99749755859 735.16835021973 168702.25805664 76539632.917091
vector 508  IntersectionExampleScenario.node[72].veinsmobility  posx  ETV
vector 509  IntersectionExampleScenario.node[72].veinsmobility  posy  ETV
vector 510  IntersectionExampleScenario.node[72].veinsmobility  speed  ETV
vector 511  IntersectionExampleScenario.node[72].veinsmobility  acceleration  ETV
vector 512  IntersectionExampleScenario.node[72].veinsmobility  co2emission  ETV
vector 515  IntersectionExampleScenario.node[73].veinsmobility  posx  ETV
vector 516  IntersectionExampleScenario.node[73].veinsmobility  posy  ETV
351	1943392 10356 13412 29211 122 211.5 359 0.973 11.36141391502 769.65991251327 3520.3240735348
350	1953748 10601 13412 29211 122 211.5 359 -3.921364068985 2.5 36.98334312439 448.79842420339
349	1964349 10554 13361 29211 121.75 211.5 360 0 15.25 2180.5141562354 27321.948605406
348	1974903 11891 13310 29211 121.5 211.5 361 237.51470947266 483.14999389648 166105.73532104 77596676.564949
347	1986794 11871 13310 29211 121.5 211.5 361 184.17810058594 483.14999389648 146229.04382324 61031423.291223
vector 517  IntersectionExampleScenario.node[73].veinsmobility  speed  ETV
vector 518  IntersectionExampleScenario.node[73].veinsmobility  acceleration  ETV
vector 519  IntersectionExampleScenario.node[73].veinsmobility  co2emission  ETV
358	1998906 10874 13518 29420 122.5 213.25 364 0.973 11.093806525473 742.0748741094 2967.6498214305
357	2009780 11485 13518 29420 122.5 213.25 364 -4.5 2.5 35.625318527222 415.030069377
356	2021265 11332 13465 29420 122.25 213.25 365 0 14.91854763031 2305.5008880971 28531.814927453
355	2032597 12077 13412 29420 122 213.25 366 483.14999389648 483.14999389648 176832.89776611 85436813.476396
354	2044674 12028 13412 29420 122 213.25 366 160.43438720703 732.45445251465 153107.02545166 69074867.795618
vector 522  IntersectionExampleScenario.node[74].veinsmobility  posx  ETV
vector 523  IntersectionExampleScenario.node[74].veinsmobility  posy  ETV
vector 529  IntersectionExampleScenario.node[75].veinsmobility  posx  ETV
vector 530  IntersectionExampleScenario.node[75].veinsmobility  posy  ETV
vector 524  IntersectionExampleScenario.node[74].veinsmobility  speed  ETV
vector 525  IntersectionExampleScenario.node[74].veinsmobility  acceleration  ETV
vector 526  IntersectionExampleScenario.node[74].veinsmobility  co2emission  ETV
vector 531  IntersectionExampleScenario.node[75].veinsmobility  speed  ETV
vector 532  IntersectionExampleScenario.node[75].veinsmobility  acceleration  ETV
vector 533  IntersectionExampleScenario.node[75].veinsmobility  co2emission  ETV
414	2057484 9822 16063 29715 134.5 215.75 326 0.973 11.36141391502 724.75668398302 3342.9036484002
413	2067306 10459 16063 29715 134.5 215.75 326 -3.7489016056061 2.5 39.699392318726 431.28535562671
412	2077765 10382 16008 29715 134.25 215.75 327 0 15.608504295349 2062.3364732955 25420.094917827
411	2088147 10713 15953 29715 134 215.75 328 235.98321533203 483.14999389648 150390.74468994 70081986.197509
410	2098860 10787 15953 29715 134 215.75 328 214.94219970703 483.18017578125 132061.0244751 54542294.623947
vector 536  IntersectionExampleScenario.node[76].veinsmobility  posx  ETV
vector 537  IntersectionExampleScenario.node[76].veinsmobility  posy  ETV
vector 538  IntersectionExampleScenario.node[76].veinsmobility  speed  ETV
vector 539  IntersectionExampleScenario.node[76].veinsmobility  acceleration  ETV
vector 540  IntersectionExampleScenario.node[76].veinsmobility  co2emission  ETV
393	2110038 10577 15687 29897 132.75 217.25 339 0.973 11.90022389248 783.92632149826 3504.0957556437
392	2120615 10845 15687 29897 132.75 217.25 339 -4.5 2.5 39.869146347046 598.97045303618
391	2131460 10863 15635 29897 132.5 217.25 340 0 16 2212.0220483029 27525.028332334
390	2142323 11244 15582 29897 132.25 217.25 341 483.14999389648 734.19128417969 173034.56530762 88986244.291319
389	2153567 11225 15582 29897 132.25 217.25 341 184.17810058594 486.85000610352 133399.39529419 54189673.740301
vector 543  IntersectionExampleScenario.node[77].veinsmobility  posx  ETV
vector 544  IntersectionExampleScenario.node[77].veinsmobility  posy  ETV
vector 550  IntersectionExampleScenario.node[78].veinsmobility  posx  ETV
vector 551  IntersectionExampleScenario.node[78].veinsmobility  posy  ETV
vector 545  IntersectionExampleScenario.node[77].veinsmobility  speed  ETV
vector 552  IntersectionExampleScenario.node[78].veinsmobility  speed  ETV
vector 546  IntersectionExampleScenario.node[77].veinsmobility  acceleration  ETV
vector 547  IntersectionExampleScenario.node[77].veinsmobility  co2emission  ETV
vector 553  IntersectionExampleScenario.node[78].veinsmobility  acceleration  ETV
vector 554  IntersectionExampleScenario.node[78].veinsmobility  co2emission  ETV
407	2165574 10662 15847 30113 133.5 219 343 0.973 11.810082123732 802.92617352902 3571.7735857006
406	2176236 10782 15847 30113 133.5 219 343 -4.5 2.5 41.736440658569 554.98107938009
405	2187018 10998 15793 30113 133.25 219 344 0 16.089719772339 2271.5913401693 28603.296407874
404	2198016 11377 15738 30113 133 219 345 238.11492919922 483.14999389648 158980.98822021 74340977.12069
403	2209393 11332 15738 30113 133 219 345 161.1796875 483.14999389648 132430.54519653 53087645.567151
vector 557  IntersectionExampleScenario.node[79].veinsmobility  posx  ETV
vector 558  IntersectionExampleScenario.node[79].veinsmobility  posy  ETV
vector 559  IntersectionExampleScenario.node[79].veinsmobility  speed  ETV
vector 560  IntersectionExampleScenario.node[79].veinsmobility  acceleration  ETV
vector 561  IntersectionExampleScenario.node[79].veinsmobility  co2emission  ETV
vector 564  IntersectionExampleScenario.node[80].veinsmobility  posx  ETV
vector 565  IntersectionExampleScenario.node[80].veinsmobility  posy  ETV
vector 566  IntersectionExampleScenario.node[80].veinsmobility  speed  ETV
vector 567  IntersectionExampleScenario.node[80].veinsmobility  acceleration  ETV
vector 568  IntersectionExampleScenario.node[80].veinsmobility  co2emission  ETV
456	2221507 6753 21695 30585 165 222.5 231 0.973 11.36141391502 598.2928465261 2926.8769696538
455	2228260 7267 21695 30585 165 222.5 231 -2.4269123077393 2.5 36.98334312439 332.81715238498
454	2235527 7332 21648 30585 164.75 222.5 232 1.0235397815704 15.25 2185.7975637913 26077.359883699
453	2242859 7678 21601 30585 164.5 222.5 233 236.40148925781 483.14999389648 104180.03091431 47655997.360403
452	2250537 7646 21601 30585 164.5 222.5 233 184.17810058594 483.14999389648 91180.065856934 37518583.698193
vector 571  IntersectionExampleScenario.node[81].veinsmobility  posx  ETV
vector 572  IntersectionExampleScenario.node[81].veinsmobility  posy  ETV
vector 573  IntersectionExampleScenario.node[81].veinsmobility  speed  ETV
vector 574  IntersectionExampleScenario.node[81].veinsmobility  acceleration  ETV
vector 575  IntersectionExampleScenario.node[81].veinsmobility  co2emission  ETV
vector 578  IntersectionExampleScenario.node[82].veinsmobility  posx  ETV
vector 579  IntersectionExampleScenario.node[82].veinsmobility  posy  ETV
vector 585  IntersectionExampleScenario.node[83].veinsmobility  posx  ETV
vector 586  IntersectionExampleScenario.node[83].veinsmobility  posy  ETV
vector 580  IntersectionExampleScenario.node[82].veinsmobility  speed  ETV
vector 587  IntersectionExampleScenario.node[83].veinsmobility  speed  ETV
vector 581  IntersectionExampleScenario.node[82].veinsmobility  acceleration  ETV
vector 582  IntersectionExampleScenario.node[82].veinsmobility  co2emission  ETV
vector 588  IntersectionExampleScenario.node[83].veinsmobility  acceleration  ETV
vector 589  IntersectionExampleScenario.node[83].veinsmobility  co2emission  ETV
491	2259356 5057 25821 31238 187 227 161 0.973 11.648172402475 506.89475899685 2849.7250295671
490	2264413 4843 25821 31238 187 227 161 -3.3783054351807 2.5 38.171613693237 280.68606535953
489	2269256 5026 25778 31238 186.75 227 162 5.6500000953674 15.64999961853 2187.5680384636 30878.325038781
488	2274282 5369 25735 31238 186.5 227 163 236.20648193359 483.14999389648 70493.90914917 31422891.648085
487	2279651 5357 25735 31238 186.5 227 163 184.17810058594 483.29928588867 64880.307952881 27574784.938693
323	2285008 12128 11466 31379 112 228 465 0.973 11.90022389248 841.14640992329 3355.3197876542
322	2297136 10603 11466 31379 112 228 465 -7.2641291618347 4 39.699392318726 488.74806203163
321	2307739 10906 11416 31379 111.75 228 466 0 16 2217.2994669676 32035.832177997
320	2318645 15410 11365 31379 111.5 228 467 486.85000610352 486.85000610352 227358.95285034 110689707.58288
319	2334055 15399 11365 31379 111.5 228 467 235.46020507812 785.82187652588 236329.40128326 123756771.2153
330	2349454 12414 11810 31519 113.75 229 462 0.94600815583079 12.26218747632 858.61438863964 3505.7931808673
329	2361868 11145 11810 31519 113.75 229 462 -4.5 2.5 41.566686630249 480.26518765367
328	2373013 11354 11761 31519 113.5 229 463 0 16.5 2257.8950108942 32732.459027212
327	2384367 15303 11711 31519 113.25 229 464 486.85000610352 731.94906616211 233617.96066284 118751076.04446
326	2399670 15291 11711 31519 113.25 229 464 486.85000610352 805.05782318115 246496.61122894 133543678.0448
344	2414961 12492 12672 31939 118.25 232 456 0.973 11.450879080643 810.04864159231 3038.7609650114
343	2427453 12186 12672 31939 118.25 232 456 -3.7055115699768 2.5000009536743 37.492597579956 333.95179446078
342	2439639 12234 12623 31939 118 232 457 0 15.375 2259.0630953275 29570.057338837
341	2451873 15107 12574 31939 117.75 232 458 236.19134521484 486.85000610352 214413.27429199 101648278.60133
340	2466980 14913 12574 31939 117.75 232 458 483.14999389648 797.88361358643 245501.84541321 134014732.51767
vector 592  IntersectionExampleScenario.node[84].veinsmobility  posx  ETV
vector 593  IntersectionExampleScenario.node[84].veinsmobility  posy  ETV
vector 594  IntersectionExampleScenario.node[84].veinsmobility  speed  ETV
vector 599  IntersectionExampleScenario.node[85].veinsmobility  posx  ETV
vector 600  IntersectionExampleScenario.node[85].veinsmobility  posy  ETV
vector 595  IntersectionExampleScenario.node[84].veinsmobility  acceleration  ETV
vector 596  IntersectionExampleScenario.node[84].veinsmobility  co2emission  ETV
vector 601  IntersectionExampleScenario.node[85].veinsmobility  speed  ETV
vector 602  IntersectionExampleScenario.node[85].veinsmobility  acceleration  ETV
vector 603  IntersectionExampleScenario.node[85].veinsmobility  co2emission  ETV
421	2482675 10602 17362 32239 141 234 373 0.973 11.648172402475 733.89867131273 3053.0249698352
420	2493277 10613 17362 32239 141 234 373 -3.746084690094 2.5 38.511121749878 331.2471563459
419	2503890 10653 17315 32239 140.75 234 374 0 15.64999961853 2208.0887092352 28950.469036468
418	2514543 12368 17268 32239 140.5 234 375 237.16400146484 486.85000610352 174201.41278076 82127732.58207
417	2526911 12338 17268 32239 140.5 234 375 483.14999389648 785.82187652588 203391.73712921 112350303.46358
449	2539249 8962 20836 32551 160.25 236 304 0.93438186594183 12.26218747632 707.84206842299 3575.3015462166
448	2548211 9396 20836 32551 160.25 236 304 -4.1097087860107 2.5 41.057416915894 429.14744423799
447	2557607 9302 20791 32551 160 236 305 0 16.5 2179.4852936249 28974.275230131
446	2566909 10089 20746 32551 159.75 236 306 486.85000610352 731.5936126709 156736.61756897 81345590.413594
445	2576998 10075 20746 32551 159.75 236 306 486.85000610352 785.82187652588 168713.71305084 94898598.472139
470	2587073 7973 23114 32902 172.25 238.25 265 0.973 11.54047740176 628.03669622099 2979.9957544065
469	2595046 8441 23114 32902 172.25 238.25 265 -4.6415252685547 2.5 36.98334312439 355.62731664537
468	2603487 8500 23063 32902 172 238.25 266 0 15.5 2216.1537154317 28554.07169367
467	2611987 8811 23012 32902 171.75 238.25 267 486.85000610352 486.85000610352 129988.95162964 63285121.894279
466	2620798 8781 23012 32902 171.75 238.25 267 237.35168457031 785.82187652588 140865.14202118 78551110.515208
477	2629579 7223 24410 33176 179 240 245 0.973 11.54047740176 615.28503754386 2964.8947048625
476	2636802 7410 24410 33176 179 240 245 -3.6073317527771 2.5000002384186 40.548154830933 393.19579420714
475	2644212 7579 24363 33176 178.75 240 246 0 15.918572425842 2222.4305753335 29951.054901909
474	2651791 8150 24316 33176 178.5 240 247 486.85000610352 486.85000610352 120251.95150757 58544663.325419
473	2659941 8115 24316 33176 178.5 240 247 235.69177246094 785.82187652588 130903.87187958 73494184.836461
vector 606  IntersectionExampleScenario.node[86].veinsmobility  posx  ETV
vector 607  IntersectionExampleScenario.node[86].veinsmobility  posy  ETV
vector 613  IntersectionExampleScenario.node[87].veinsmobility  posx  ETV
vector 614  IntersectionExampleScenario.node[87].veinsmobility  posy  ETV
vector 608  IntersectionExampleScenario.node[86].veinsmobility  speed  ETV
vector 615  IntersectionExampleScenario.node[87].veinsmobility  speed  ETV
vector 609  IntersectionExampleScenario.node[86].veinsmobility  acceleration  ETV
vector 610  IntersectionExampleScenario.node[86].veinsmobility  co2emission  ETV
vector 616  IntersectionExampleScenario.node[87].veinsmobility  acceleration  ETV
vector 617  IntersectionExampleScenario.node[87].veinsmobility  co2emission  ETV
498	2668838 6511 26162 33792 189 243.75 220 0.973 11.648172402475 613.0228628144 3283.8185219773
497	2675349 6540 26162 33792 189 243.75 220 -3.8020076751709 2.5 38.341367721558 462.90383588873
496	2681889 6881 26119 33792 188.75 243.75 221 0 15.64999961853 2183.8086533695 27798.360515475
495	2688770 7317 26076 33792 188.5 243.75 222 486.85000610352 733.65547180176 116305.97080994 61976402.44014
494	2696087 7313 26076 33792 188.5 243.75 222 486.83819580078 785.82187652588 125957.1313858 73245383.201738
vector 620  IntersectionExampleScenario.node[88].veinsmobility  posx  ETV
vector 621  IntersectionExampleScenario.node[88].veinsmobility  posy  ETV
vector 622  IntersectionExampleScenario.node[88].veinsmobility  speed  ETV
vector 623  IntersectionExampleScenario.node[88].veinsmobility  acceleration  ETV
vector 624  IntersectionExampleScenario.node[88].veinsmobility  co2emission  ETV
vector 627  IntersectionExampleScenario.node[89].veinsmobility  posx  ETV
vector 628  IntersectionExampleScenario.node[89].veinsmobility  posy  ETV
vector 629  IntersectionExampleScenario.node[89].veinsmobility  speed  ETV
vector 630  IntersectionExampleScenario.node[89].veinsmobility  acceleration  ETV
vector 631  IntersectionExampleScenario.node[89].veinsmobility  co2emission  ETV
vector 634  IntersectionExampleScenario.node[90].veinsmobility  posx  ETV
vector 635  IntersectionExampleScenario.node[90].veinsmobility  posy  ETV
vector 636  IntersectionExampleScenario.node[90].veinsmobility  speed  ETV
vector 637  IntersectionExampleScenario.node[90].veinsmobility  acceleration  ETV
vector 638  IntersectionExampleScenario.node[90].veinsmobility  co2emission  ETV
vector 641  IntersectionExampleScenario.node[91].veinsmobility  posx  ETV
vector 642  IntersectionExampleScenario.node[91].veinsmobility  posy  ETV
vector 648  IntersectionExampleScenario.node[92].veinsmobility  posx  ETV
vector 649  IntersectionExampleScenario.node[92].veinsmobility  posy  ETV
vector 643  IntersectionExampleScenario.node[91].veinsmobility  speed  ETV
vector 644  IntersectionExampleScenario.node[91].veinsmobility  acceleration  ETV
vector 645  IntersectionExampleScenario.node[91].veinsmobility  co2emission  ETV
vector 650  IntersectionExampleScenario.node[92].veinsmobility  speed  ETV
vector 655  IntersectionExampleScenario.node[93].veinsmobility  posx  ETV
vector 656  IntersectionExampleScenario.node[93].veinsmobility  posy  ETV
vector 651  IntersectionExampleScenario.node[92].veinsmobility  acceleration  ETV
vector 652  IntersectionExampleScenario.node[92].veinsmobility  co2emission  ETV
vector 657  IntersectionExampleScenario.node[93].veinsmobility  speed  ETV
vector 658  IntersectionExampleScenario.node[93].veinsmobility  acceleration  ETV
vector 659  IntersectionExampleScenario.node[93].veinsmobility  co2emission  ETV
vector 662  IntersectionExampleScenario.node[94].veinsmobility  posx  ETV
vector 663  IntersectionExampleScenario.node[94].veinsmobility  posy  ETV
vector 664  IntersectionExampleScenario.node[94].veinsmobility  speed  ETV
vector 665  IntersectionExampleScenario.node[94].veinsmobility  acceleration  ETV
vector 666  IntersectionExampleScenario.node[94].veinsmobility  co2emission  ETV
vector 669  IntersectionExampleScenario.node[95].veinsmobility  posx  ETV
vector 670  IntersectionExampleScenario.node[95].veinsmobility  posy  ETV
vector 671  IntersectionExampleScenario.node[95].veinsmobility  speed  ETV
vector 672  IntersectionExampleScenario.node[95].veinsmobility  acceleration  ETV
vector 673  IntersectionExampleScenario.node[95].veinsmobility  co2emission  ETV
561	2706528 5115 30249 36417 220 259.75 160 0.973 11.648172402475 506.62173068736 2743.0137753722
560	2711643 4583 30249 36417 220 259.75 160 -3.47731590271 2.5 38.341367721558 280.06653551157
559	2716226 4995 30214 36417 219.75 259.75 161 5.6500000953674 15.64999961853 2188.2595562935 31102.263563451
558	2721221 5336 30179 36417 219.5 259.75 162 486.85000610352 734.19282531738 87133.305480957 47801203.514396
557	2726557 5342 30179 36417 219.5 259.75 162 486.81842041016 785.82187652588 92685.972343445 54775674.841421
vector 676  IntersectionExampleScenario.node[96].veinsmobility  posx  ETV
vector 677  IntersectionExampleScenario.node[96].veinsmobility  posy  ETV
vector 678  IntersectionExampleScenario.node[96].veinsmobility  speed  ETV
vector 679  IntersectionExampleScenario.node[96].veinsmobility  acceleration  ETV
vector 680  IntersectionExampleScenario.node[96].veinsmobility  co2emission  ETV
568	2732290 5118 30518 36689 222 261.5 159 0.973 11.648172402475 505.94545364388 2822.2010326252
567	2737408 4695 30518 36689 222 261.5 159 -4.2469520568848 2.5 38.511121749878 238.13161943772
566	2742103 5033 30483 36689 221.75 261.5 160 5.6500000953674 15.64999961853 2292.8304491043 33503.056031439
565	2747136 5313 30448 36689 221.5 261.5 161 486.85000610352 486.85000610352 78382.850982666 38160691.479322
564	2752449 5301 30448 36689 221.5 261.5 161 236.07672119141 803.92188262939 85335.055862427 49785018.94471
vector 683  IntersectionExampleScenario.node[97].veinsmobility  posx  ETV
vector 684  IntersectionExampleScenario.node[97].veinsmobility  posy  ETV
vector 685  IntersectionExampleScenario.node[97].veinsmobility  speed  ETV
vector 686  IntersectionExampleScenario.node[97].veinsmobility  acceleration  ETV
vector 687  IntersectionExampleScenario.node[97].veinsmobility  co2emission  ETV
vector 690  IntersectionExampleScenario.node[98].veinsmobility  posx  ETV
vector 691  IntersectionExampleScenario.node[98].veinsmobility  posy  ETV
vector 692  IntersectionExampleScenario.node[98].veinsmobility  speed  ETV
vector 693  IntersectionExampleScenario.node[98].veinsmobility  acceleration  ETV
vector 694  IntersectionExampleScenario.node[98].veinsmobility  co2emission  ETV
582	2758532 5381 30867 37430 224.5 266.25 168 0.973 11.36141391502 516.0342733028 2683.7224702439
581	2763913 5021 30867 37430 224.5 266.25 168 -4.3956909179688 2.5 37.32285118103 282.26479867657
580	2768934 5261 30828 37430 224.25 266.25 169 5.6500000953674 15.25 2284.7490587234 32149.594734979
579	2774195 5599 30789 37430 224 266.25 170 486.85000610352 733.95350646973 91134.622192383 49819083.443727
578	2779794 5599 30789 37430 224 266.25 170 486.81729125977 810.46563720703 98965.495811462 59764396.996463
435	2785393 12233 19471 37957 152.5 269.75 470 0.973 12.099024792222 851.51295206077 3454.4416928972
434	2797626 10811 19471 37957 152.5 269.75 470 -9.5921325683594 4 40.038900375366 546.71668562683
433	2808437 10989 19426 37957 152.25 269.75 471 0 16.27499961853 2246.4911689758 32331.795005096
432	2819426 15567 19381 37957 152 269.75 472 486.63604736328 805.05782318115 248654.3720932 133716822.60941
431	2834993 15505 19381 37957 152 269.75 472 239.04711914062 483.14999389648 220208.15322876 103876690.69672
442	2850498 11828 20354 37994 157.5 270 451 0.973 11.648172402475 822.69060246437 3224.1689389968
441	2862326 10377 20354 37994 157.5 270 451 -7.6570296287537 4 39.190130233765 492.32005044371
440	2872703 10641 20309 37994 157.25 270 452 0 15.64999961853 2208.5918539762 31702.331397519
439	2883344 14922 20264 37994 157 270 453 184.17810058594 732.46697998047 209942.13816833 101439233.04145
438	2898266 14947 20264 37994 157 270 453 486.85000610352 486.85000610352 220543.05276489 107371386.58468
vector 697  IntersectionExampleScenario.node[99].veinsmobility  posx  ETV
vector 698  IntersectionExampleScenario.node[99].veinsmobility  posy  ETV
vector 699  IntersectionExampleScenario.node[99].veinsmobility  speed  ETV
vector 700  IntersectionExampleScenario.node[99].veinsmobility  acceleration  ETV
vector 701  IntersectionExampleScenario.node[99].veinsmobility  co2emission  ETV
505	2913604 8135 28515 38311 205.5 272.25 268 0.973 11.200708441096 609.82408304272 2693.7193317196
504	2921739 8558 28515 38311 205.5 272.25 268 -3.9751117229462 2.5000019073486 35.625318527222 326.50542286728
503	2930297 8644 28484 38311 205.25 272.25 269 0 15.02499961853 2207.3174914084 28266.5699369
502	2938941 8892 28453 38311 205 272.25 270 483.13265991211 785.82187652588 147908.8381424 83095568.783932
501	2947833 8895 28453 38311 205 272.25 270 483.14999389648 733.48768615723 139250.73718262 73000398.668162
463	2956728 11819 21934 38381 166.25 272.75 427 0.973 11.200708441096 777.55994098819 2954.7794100589
462	2968547 11850 21934 38381 166.25 272.75 427 -3.7950530052185 2.5 37.15309715271 323.91458092386
461	2980397 11769 21885 38381 166 272.75 428 0 15.375953674316 2219.3255295474 29161.726108506
460	2992166 13810 21836 38381 165.75 272.75 429 184.17810058594 734.33674621582 196436.98432922 94211363.150884
459	3005976 14158 21836 38381 165.75 272.75 429 486.85000610352 486.85000610352 208858.65261841 101682836.30204
526	3020134 7042 29561 38450 214.5 273.25 236 0.973 12.099024792222 622.82236890516 3286.1465011131
525	3027176 7116 29561 38450 214.5 273.25 236 -3.9271636009216 2.5 41.566686630249 370.93196228793
524	3034292 7465 29530 38450 214.25 273.25 237 0 16.27499961853 2182.1154033374 28901.377265584
523	3041757 7836 29501 38450 214 273.25 238 486.85000610352 785.82187652588 132377.60462189 75498534.32117
522	3049593 7842 29501 38450 214 273.25 238 237.58099365234 483.14999389648 107224.60012817 49317695.41996
484	3057435 10478 25084 38678 182.75 275 370 0.973 12.099024792222 750.91853868408 3201.6293632125
483	3067913 10786 25084 38678 182.75 275 370 -3.9121918678284 2.5 40.887674331665 355.89893127824
482	3078699 10571 25039 38678 182.5 275 371 0 16.27499961853 2182.8780800179 29120.005826031
481	3089270 12227 24994 38678 182.25 275 372 184.17810058594 483.25225830078 160264.96795654 71086239.704144
480	3101497 12269 24994 38678 182.25 275 372 486.85000610352 732.12353515625 188976.11233521 97108862.868977
540	3113766 7148 29835 38802 216.75 276 238 0.973 11.093806525473 573.85322474998 2560.5035081729
539	3120914 7567 29835 38802 216.75 276 238 -4.5 2.5 34.77654838562 350.66467512784
538	3128481 7658 29804 38802 216.5 276 239 0 14.875 2279.64461812 28558.743535801
537	3136139 7894 29773 38802 216.25 276 240 237.49304199219 802.70781707764 127182.47460175 72128051.480729
536	3144033 7920 29773 38802 216.25 276 240 483.14999389648 483.14999389648 115955.99853516 56024139.984521
vector 704  IntersectionExampleScenario.node[100].veinsmobility  posx  ETV
vector 705  IntersectionExampleScenario.node[100].veinsmobility  posy  ETV
[...]
4410	30619641 6645 301188 309475 1741.25 1790.75 199 -4.5 2.5 37.15309715271 459.26996104537
4409	30626286 6877 301137 309475 1741 1790.75 200 5.6500000953674 15.25 2184.4504966736 26130.246120127
4408	30633163 7203 301086 309475 1740.75 1790.75 201 184.17810058594 483.14999389648 78324.753662109 32571152.551948
4407	30640366 7229 301086 309475 1740.75 1790.75 201 486.85000610352 733.49760437012 106218.68411255 57154931.185755
vector 4568  IntersectionExampleScenario.node[652].veinsmobility  posx  ETV
vector 4569  IntersectionExampleScenario.node[652].veinsmobility  posy  ETV
vector 4570  IntersectionExampleScenario.node[652].veinsmobility  speed  ETV
vector 4571  IntersectionExampleScenario.node[652].veinsmobility  acceleration  ETV
vector 4572  IntersectionExampleScenario.node[652].veinsmobility  co2emission  ETV
4439	30647996 5507 303677 309886 1753.75 1793 158 0.973 11.810082123732 508.66956541689 2881.0676112044
4438	30653503 5386 303677 309886 1753.75 1793 158 -4.0955123901367 2.5 38.850629806519 292.93136253092
4437	30658889 5385 303628 309886 1753.5 1793 159 5.6500000953674 15.875 2177.6272602081 31213.916229323
4436	30664274 5747 303579 309886 1753.25 1793 160 486.85000610352 785.82187652588 91647.524543762 54227946.797606
4435	30670021 5751 303579 309886 1753.25 1793 160 238.23693847656 483.14999389648 69275.033447266 30897705.458192
4418	30675772 6844 301538 309933 1743 1793.25 202 0.973 11.36141391502 563.43620066118 2669.8997600305
4417	30682616 6826 301538 309933 1743 1793.25 202 -4.5 2.5 37.15309715271 325.50531433834
4416	30689442 6996 301487 309933 1742.75 1793.25 203 5.6500000953674 15.25 2262.6643452644 27455.067790829
4415	30696438 7332 301436 309933 1742.5 1793.25 204 164.94219970703 483.14999389648 78837.891387939 32758341.526084
4414	30703770 7336 301436 309933 1742.5 1793.25 204 486.85000610352 734.19236755371 107729.64154053 57926724.952689
vector 4575  IntersectionExampleScenario.node[653].veinsmobility  posx  ETV
vector 4576  IntersectionExampleScenario.node[653].veinsmobility  posy  ETV
vector 4577  IntersectionExampleScenario.node[653].veinsmobility  speed  ETV
vector 4582  IntersectionExampleScenario.node[654].veinsmobility  posx  ETV
vector 4583  IntersectionExampleScenario.node[654].veinsmobility  posy  ETV
vector 4578  IntersectionExampleScenario.node[653].veinsmobility  acceleration  ETV
vector 4579  IntersectionExampleScenario.node[653].veinsmobility  co2emission  ETV
vector 4584  IntersectionExampleScenario.node[654].veinsmobility  speed  ETV
vector 4585  IntersectionExampleScenario.node[654].veinsmobility  acceleration  ETV
vector 4586  IntersectionExampleScenario.node[654].veinsmobility  co2emission  ETV
vector 4589  IntersectionExampleScenario.node[655].veinsmobility  posx  ETV
vector 4590  IntersectionExampleScenario.node[655].veinsmobility  posy  ETV
vector 4591  IntersectionExampleScenario.node[655].veinsmobility  speed  ETV
vector 4592  IntersectionExampleScenario.node[655].veinsmobility  acceleration  ETV
vector 4593  IntersectionExampleScenario.node[655].veinsmobility  co2emission  ETV
vector 4596  IntersectionExampleScenario.node[656].veinsmobility  posx  ETV
vector 4597  IntersectionExampleScenario.node[656].veinsmobility  posy  ETV
vector 4603  IntersectionExampleScenario.node[657].veinsmobility  posx  ETV
vector 4604  IntersectionExampleScenario.node[657].veinsmobility  posy  ETV
vector 4598  IntersectionExampleScenario.node[656].veinsmobility  speed  ETV
vector 4599  IntersectionExampleScenario.node[656].veinsmobility  acceleration  ETV
vector 4600  IntersectionExampleScenario.node[656].veinsmobility  co2emission  ETV
vector 4605  IntersectionExampleScenario.node[657].veinsmobility  speed  ETV
vector 4606  IntersectionExampleScenario.node[657].veinsmobility  acceleration  ETV
vector 4607  IntersectionExampleScenario.node[657].veinsmobility  co2emission  ETV
4271	30713111 12063 290960 311267 1691.75 1800 434 0.973 11.648172402475 629.50901830447 1917.1342393473
4270	30725174 10626 290960 311267 1691.75 1800 434 -7.4922709465027 4 5.3999996185303 399.41068598411
4269	30735800 10812 290907 311267 1691.5 1800 435 0 15.64999961853 1198.9757205248 16340.101004695
4268	30746612 15695 290854 311267 1691.25 1800 436 478.44818115234 483.14999389648 210636.68069458 101761085.97225
4267	30762307 15668 290854 311267 1691.25 1800 436 184.17810058594 481.52880859375 192814.63522339 87515360.325194
4306	30777975 11298 293317 311267 1702.75 1800 390 0.973 12.553400930962 597.63176104228 2138.0292573347
4305	30789273 11117 293317 311267 1702.75 1800 390 -3.8439748287201 2.5 4.8999996185303 288.59584297768
4304	30800390 11065 293264 311267 1702.5 1800 391 0 16.89999961853 1164.1478708219 14990.127769304
4303	30811455 14112 293211 311267 1702.25 1800 392 483.14999389648 483.14999389648 189394.79760742 91506095.308052
4302	30825567 14084 293211 311267 1702.25 1800 392 184.17810058594 473.09259033203 169946.62536621 75676740.368478
4313	30839651 11552 293475 311267 1703.5 1800 387 0.973 12.074806089755 583.3715650789 1936.7942471949
4312	30851203 11752 293475 311267 1703.5 1800 387 -4.5 2.5000038146973 -10.715052604675 329.48850092382
4311	30862955 11631 293422 311267 1703.25 1800 388 0 16.241527557373 1197.8600224191 15115.992442012
4310	30874586 14002 293369 311267 1703 1800 389 483.14999389648 483.14999389648 187945.34762573 90805793.558246
4309	30888588 13966 293369 311267 1703 1800 389 161.1796875 460.19375610352 164015.88943481 71498995.950337
4348	30902554 9341 297271 311267 1722 1800 313 0.973 11.648172402475 474.78673032585 1621.6153958664
4347	30911895 9723 297271 311267 1722 1800 313 -3.9801383018494 2.5 -21.318786621094 196.64573407707
4346	30921618 9574 297220 311267 1721.75 1800 314 0 15.64999961853 1072.4573376691 13303.34123961
4345	30931192 11339 297169 311267 1721.5 1800 315 483.14999389648 483.14999389648 152192.24807739 73531683.729684
4344	30942531 11304 297169 311267 1721.5 1800 315 184.17810058594 452.44717407227 130592.64453125 55856004.655254
4404	30953835 6952 300988 311267 1740.25 1800 240 0.973 11.200708441096 402.1178854592 1450.5252207087
4403	30960787 6316 300988 311267 1740.25 1800 240 -7.5428676605225 2.5 -22.60000038147 314.86937316267
4402	30967103 6546 300939 311267 1740 1800 241 0 15.02499961853 1146.4485878944 15593.979968867
4401	30973649 8711 300889 311267 1739.75 1800 242 486.85000610352 486.85000610352 117817.70147705 57359548.683204
4400	30982360 8705 300889 311267 1739.75 1800 242 498.39999389648 785.82187652588 133760.13253021 75890979.612859
4432	30991065 6619 302403 311267 1747.25 1800 212 0.973 11.200708441096 374.46236338853 1427.3644513557
4431	30997684 7186 302403 311267 1747.25 1800 212 -3.7787363529205 2.5 -22.60000038147 192.6830907873
4430	31004870 7088 302352 311267 1747 1800 213 0 15.243779182434 1122.7722268356 14368.467467601
4429	31011958 7703 302301 311267 1746.75 1800 214 486.85000610352 486.85000610352 104185.90130615 50722906.6868
4428	31019661 7693 302301 311267 1746.75 1800 214 504.79766845703 785.82187652588 120824.12100983 69928980.153456
4446	31027354 5822 303871 311267 1754.75 1800 182 0.973 11.648172402475 346.77001528335 1528.9780821734
4445	31033176 6568 303871 311267 1754.75 1800 182 -3.8534183502197 2.5 -22.09847676754 201.18822015112
4444	31039744 6467 303824 311267 1754.5 1800 183 0 15.893312454224 1046.8516618479 13096.215348593
4443	31046211 6624 303775 311267 1754.25 1800 184 483.14999389648 483.14999389648 88899.598876953 42951840.6548
4442	31052835 6594 303775 311267 1754.25 1800 184 184.17810058594 446.01876831055 70761.907196045 28536077.538431
4453	31059429 4624 305218 311267 1763 1800 149 0.973 11.200708441096 293.17721605311 1315.0391365018
4452	31064053 5341 305218 311267 1763 1800 149 -3.7392911911011 2.5 -22.60000038147 180.23222656537
4451	31069394 5359 305181 311267 1762.75 1800 150 0 15.02499961853 1018.8908269722 11867.314298321
4450	31074753 5435 305144 311267 1762.5 1800 151 483.14999389648 483.14999389648 72955.649078369 35248521.406928
4449	31080188 5402 305144 311267 1762.5 1800 151 184.17810058594 439.19696044922 55049.034515381 21159317.867596
4460	31085590 5136 305295 311267 1763.5 1800 147 0.973 11.36141391502 465.59009630052 2535.0082066946
4459	31090726 4803 305295 311267 1763.5 1800 147 -3.4656429290771 2.5 36.983354568481 274.19288198747
4458	31095529 5009 305257 311267 1763.25 1800 148 5.6500000953674 15.25 1960.2752604485 27158.347144069
4457	31100538 5355 305218 311267 1763 1800 149 486.84750366211 785.82187652588 86567.760993958 51937913.848324
4456	31105893 5310 305218 311267 1763 1800 149 292.57684326172 483.14999389648 66923.581481934 30525956.666648
4467	31111203 4497 305858 311267 1767.75 1800 130 0.96333723109819 12.099024792222 459.83795901156 2890.3684833752
4466	31115700 4393 305858 311267 1767.75 1800 130 -3.3316535949707 2.5 40.209341049194 296.53698467551
4465	31120093 4380 305825 311267 1767.5 1800 131 5.6500000953674 16.27499961853 1771.2743968964 25367.0844175
4464	31124473 4729 305794 311267 1767.25 1800 132 184.17810058594 483.1516418457 50227.875427246 20598441.795466
4463	31129202 4750 305794 311267 1767.25 1800 132 486.85000610352 630.02470397949 67059.166976929 34270244.750168
4474	31133952 3864 305891 311267 1768 1800 129 0.973 11.200708441096 261.41300607005 1242.0912596952
4473	31137816 4644 305891 311267 1768 1800 129 -3.7453255653381 2.5 -22.60000038147 200.43043766966
4472	31142460 4538 305858 311267 1767.75 1800 130 0 15.02499961853 987.40937006474 11827.296292208
4471	31146998 4715 305825 311267 1767.5 1800 131 483.14999389648 483.14999389648 63292.649200439 30579843.074885
4470	31151713 4683 305825 311267 1767.5 1800 131 184.17810058594 431.19476318359 45995.190704346 17072306.943871
4481	31156396 4370 305994 311267 1768.75 1800 126 0.973 11.131250533389 379.48850084479 2043.2452390181
4480	31160766 4231 305994 311267 1768.75 1800 126 -3.4044494628906 2.5 34.785696029663 171.50809181197
4479	31164997 4352 305959 311267 1768.5 1800 127 5.6500000953674 14.927569389343 1711.9615125656 23522.936346714
4478	31169349 4590 305924 311267 1768.25 1800 128 162.00311279297 585.20944213867 47021.229309082 19356376.938623
4477	31173939 4608 305924 311267 1768.25 1800 128 486.85000610352 486.85000610352 62316.80078125 30338934.840703
4488	31178547 3757 306170 311267 1770 1800 121 0.973 11.648172402475 281.4309505521 1427.3118085239
4487	31182304 4352 306170 311267 1770 1800 121 -3.6974506378174 2.5 -21.587988257408 192.09553363551
4486	31186656 4361 306135 311267 1769.75 1800 122 0 15.64999961853 1093.1527015381 13790.35531902
4485	31191017 4427 306099 311267 1769.5 1800 123 486.85000610352 486.85000610352 59882.550750732 29153820.198488
4484	31195444 4416 306099 311267 1769.5 1800 123 512.38031005859 785.82187652588 75194.194343567 47047026.213322
4495	31199860 3626 306449 311267 1772 1800 113 0.973 11.200708441096 271.62657349007 1309.30202096
4494	31203486 3964 306449 311267 1772 1800 113 -4.5 2.5 -14.134895324707 216.97662222168
4493	31207450 4085 306414 311267 1771.75 1800 114 2.1162762641907 15.031005859375 1112.4845757484 13791.306179871
4492	31211535 4139 306379 311267 1771.5 1800 115 486.85000610352 486.85000610352 55987.750701904 27257636.770944
4491	31215674 4125 306379 311267 1771.5 1800 115 526.15887451172 803.92188262939 73294.923141479 47713403.398776
4502	31219799 3494 306628 311267 1773.25 1800 108 0.973 10.927554978 272.52363573254 1317.3978079803
4501	31223293 3794 306628 311267 1773.25 1800 108 -4.5 2.5 -10.317209243774 212.79926047641
4500	31227087 3907 306591 311267 1773 1800 109 3.0706977844238 15.204051017761 1136.1610918045 14091.231467732
4499	31230994 3959 306554 311267 1772.75 1800 110 486.85000610352 486.85000610352 53553.500671387 26072522.128729
4498	31234953 3943 306554 311267 1772.75 1800 110 533.15286254883 816.14531707764 71909.338394165 47996871.336593
4509	31238896 3124 306742 311267 1774 1800 105 0.973 11.200708441096 241.81542492743 1255.4232591201
4508	31242020 3578 306742 311267 1774 1800 105 -3.7769281864166 2.5 -22.60000038147 176.94910394954
4507	31245598 3695 306704 311267 1773.75 1800 106 0 15.599703788757 958.23800116777 11471.832303929
4506	31249293 3851 306665 311267 1773.5 1800 107 483.14999389648 483.14999389648 51697.049346924 24977429.076432
4505	31253144 3827 306665 311267 1773.5 1800 107 184.17810058594 424.07189941406 35574.851776123 12542372.498225
4516	31256971 3589 306820 311267 1774.5 1800 103 0.973 11.200708441096 359.74312124465 2150.4404546512
4515	31260560 3464 306820 311267 1774.5 1800 103 -3.54833984375 2.5 36.39999961853 222.535138057
4514	31264024 3477 306781 311267 1774.25 1800 104 5.6500000953674 15.138617515564 1365.5406761169 18647.3814136
4513	31267501 3772 306742 311267 1774 1800 105 483.14999389648 785.82187652588 65035.436058044 41396103.065274
4512	31271273 3778 306742 311267 1774 1800 105 483.14999389648 522.88223266602 51036.540130615 24813858.980528
4523	31275051 2818 307346 311267 1778 1800 89 0.973 11.648172402475 237.476373302 1354.0770618651
4522	31277869 3130 307346 311267 1778 1800 89 -2.9131298065186 2.5 -7.3977098464966 167.26945334821
4521	31280999 3222 307309 311267 1777.75 1800 90 3.8005726337433 15.64999961853 1045.2761666775 13415.76653828
4520	31284221 3275 307272 311267 1777.5 1800 91 486.85000610352 486.85000610352 44303.35055542 21569086.488312
4519	31287496 3262 307272 311267 1777.5 1800 91 542.57943725586 802.86884307861 60364.278091431 40714257.701397
4530	31290758 2788 307646 311267 1780 1800 81 0.973 11.648172402475 261.97024819368 1454.4440532828
4529	31293546 2654 307646 311267 1780 1800 81 -3.5075912475586 2.5 0.81731224060059 226.24932760938
4528	31296200 2938 307607 311267 1779.75 1800 82 5.6500000953674 15.64999961853 1131.9440894127 16351.99328703
4527	31299138 2960 307568 311267 1779.5 1800 83 184.17810058594 465.48178100586 26483.563171387 9114176.622713
4526	31302098 2987 307568 311267 1779.5 1800 83 486.85000610352 486.85000610352 40408.550506592 19672903.060768
4537	31305085 2133 308196 311267 1783.5 1800 67 0.973 11.200708441096 208.62746297683 1251.1737700462
4536	31307218 2299 308196 311267 1783.5 1800 67 -2.0692672729492 2.5 14.11789894104 126.34173625156
4535	31309517 2435 308155 311267 1783.25 1800 68 5.6500000953674 15.690603256226 846.16962623596 10986.886789346
4534	31311952 2482 308114 311267 1783 1800 69 486.85000610352 486.85000610352 33592.650421143 16354582.062567
4533	31314434 2479 308114 311267 1783 1800 69 577.17065429688 785.82187652588 47133.841163635 32505724.128788
4544	31316913 2075 308487 311267 1785.25 1800 60 0.973 11.648172402475 216.50947323121 1353.309558976
4543	31318988 2073 308487 311267 1785.25 1800 60 -3.371768951416 2.5 22.354940414429 146.28841309323
4542	31321061 2176 308444 311267 1785 1800 61 5.6500000953674 15.64999961853 825.29458045959 11640.329509378
4541	31323237 2231 308401 311267 1784.75 1800 62 486.85000610352 486.85000610352 30184.700378418 14695421.563466
4540	31325468 2224 308401 311267 1784.75 1800 62 602.31637573242 805.05782318115 44048.386520386 31555899.137588
4551	31327692 1884 308749 311267 1786.75 1800 54 0.973 11.393403923605 207.31516274307 1376.5638676678
4550	31329576 1860 308749 311267 1786.75 1800 54 -0.62766265869141 2.5 36.480279922485 104.38165822362
4549	31331436 1964 308704 311267 1786.5 1800 55 5.6500000953674 15.633864402771 760.74596309662 10931.778682951
4548	31333400 2016 308659 311267 1786.25 1800 56 486.85000610352 486.85000610352 27263.600341797 13273283.992808
4547	31335416 2007 308659 311267 1786.25 1800 56 630.48193359375 815.73360443115 41032.840431213 30254639.021021
4558	31337423 1705 308926 311267 1787.75 1800 50 0.973 11.648172402475 200.62907905199 1342.331423666
4557	31339128 1638 308926 311267 1787.75 1800 50 -2.1607551574707 2.5 24.511114120483 131.52570373661
4556	31340766 1820 308881 311267 1787.5 1800 51 5.6500000953674 15.64999961853 686.24154472351 9643.7065314154
4555	31342586 1872 308836 311267 1787.25 1800 52 483.14999389648 483.14999389648 25123.799682617 12138563.663313
4554	31344458 1850 308836 311267 1787.25 1800 52 184.17810058594 351.94763183594 13527.642944336 3668663.9339515
4565	31346308 1507 309290 311267 1789.75 1800 42 1.7729555826186 11.648172402475 189.86753010331 1308.1367089558
4564	31347815 1429 309290 311267 1789.75 1800 42 -0.11759185791016 2.5 39.529897689819 100.03159723187
4563	31349244 1530 309243 311267 1789.5 1800 43 5.6500000953674 15.64999961853 585.24517345428 8371.1758436845
4562	31350774 1567 309196 311267 1789.25 1800 44 184.17810058594 325.28436279297 10797.922668457 2737208.0207157
4561	31352341 1584 309196 311267 1789.25 1800 44 486.85000610352 486.85000610352 21421.400268555 10429008.851492
4572	31353925 1074 309839 311267 1792.75 1800 30 1.0416949659221 12.099024792222 170.83399525402 1383.1013812837
4571	31354999 926 309839 311267 1792.75 1800 30 -0.31820678710938 2.5 41.22763633728 106.49497039369
4570	31355925 1102 309792 311267 1792.5 1800 31 5.6500000953674 16.27499961853 405.62347888947 5690.0633001402
4569	31357027 1152 309745 311267 1792.25 1800 32 486.85000610352 486.85000610352 15579.200195312 7584733.7101758
4568	31358179 1150 309745 311267 1792.25 1800 32 695.62973022461 791.65267944336 24064.844696045 18126928.953541
4579	31359329 852 310120 311267 1794.25 1800 24 0.90753377507377 12.553400930962 167.17066294902 1505.0058058376
4578	31360181 672 310120 311267 1794.25 1800 24 -0.47638702392578 2.5 43.433599472046 113.00228937954
4577	31360853 885 310073 311267 1794 1800 25 5.6500000953674 16.89999961853 313.94147109985 4295.3247823648
4576	31361738 928 310026 311267 1793.75 1800 26 712.76121520996 785.82187652588 19675.693153381 14903346.125318
4575	31362666 935 310026 311267 1793.75 1800 26 483.14999389648 483.14999389648 12561.899841309 6069281.8316565
4586	31363601 778 310218 311267 1794.75 1800 22 0.973 11.648172402475 143.01198634741 1202.2413787748
4585	31364379 624 310218 311267 1794.75 1800 22 -0.37222290039062 2.5 38.77610206604 100.30664277923
4584	31365003 817 310169 311267 1794.5 1800 23 5.6500000953674 15.64999961853 273.63458538055 3516.2404978247
4583	31365820 864 310120 311267 1794.25 1800 24 486.85000610352 486.85000610352 11684.400146484 5688550.2826318
4582	31366684 862 310120 311267 1794.25 1800 24 743.55730438232 806.83728790283 18754.589057922 14665128.586826
4593	31367546 463 310663 311267 1797 1800 13 5.2162187258585 10.315404520939 100.64515864481 812.01557512667
4592	31368009 322 310663 311267 1797 1800 13 2.4999980926514 2.5 32.499998092651 81.24999046326
4591	31368331 496 310612 311267 1796.75 1800 14 5.6500000953674 13.77499961853 135.97499656677 1409.5242963886
4590	31368827 527 310561 311267 1796.5 1800 15 184.17810058594 213.71246337891 2940.9748535156 577965.59088425
4589	31369354 539 310561 311267 1796.5 1800 15 486.85000610352 486.85000610352 7302.7500915527 3555343.9266449
4600	31369893 71 311213 311267 1799.75 1800 2 5.2162187258585 5.6304533568076 10.846672082666 58.910942799184
4599	31369964 47 311213 311267 1799.75 1800 2 2.5 2.5 5 12.5
4598	31370011 107 311160 311267 1799.5 1800 3 5.6500000953674 6.9000000953674 18.825000286102 118.90812859058
4597	31370118 144 311109 311267 1799.25 1800 4 483.14999389648 483.14999389648 1932.5999755859 933735.66640869
4596	31370262 144 311109 311267 1799.25 1800 4 184.17810058594 187.00311279297 740.87182617188 137228.20185051
4607	31370406 34 311267 311267 1800 1800 1 5.2162187258585 5.2162187258585 5.2162187258585 27.208937795997
4606	31370440 22 311267 311267 1800 1800 1 2.5 2.5 2.5 6.25
4605	31370462 71 311213 311267 1799.75 1800 2 5.6500000953674 6.2750000953674 11.925000190735 71.298127274513
4604	31370533 107 311160 311267 1799.5 1800 3 171.40313720703 172.73748779297 515.54376220703 88596.310577851
4603	31370640 107 311160 311267 1799.5 1800 3 486.85000610352 486.85000610352 1460.5500183105 711068.78532898
0	31370747 521 0 311266 0 1800 31 0 40 821 23421
1	31371268 541 0 311266 0 1800 31 0 352 5290 1263500
