file 35743570 1591393742                                        
version 2
run nodebug-39-20200605-17:42:48-20012
attr configname nodebug
attr datetime 20200605-17:42:48
attr experiment nodebug
attr inifile omnetpp.ini
attr iterationvars ""
attr iterationvars2 $repetition=39
attr measurement ""
attr network "\"org.car2x.veins.modules.application.ExtTraCIScenarioManagerLaunchd.IntersectionExampleScenario\""
attr processid 20012
attr repetition 39
attr replication #39
attr resultdir results
attr runnumber 39
attr seedset 39
param **.coreDebug false
param **.debug false
param *.**.nic.mac1609_4.bitrate 18Mbps
param *.**.nic.mac1609_4.txPower 20mW
param *.**.nic.mac1609_4.useServiceChannel false
param *.**.nic.phy80211p.analogueModels "xmldoc(\"config.xml\")"
param *.**.nic.phy80211p.decider "xmldoc(\"config.xml\")"
param *.**.nic.phy80211p.sensitivity -89dBm
param *.**.nic.phy80211p.thermalNoise -110dBm
param *.**.nic.phy80211p.usePropagationDelay true
param *.**.nic.phy80211p.useThermalNoise true
param *.annotations.draw false
param *.connectionManager.alpha 2.0
param *.connectionManager.carrierFrequency "5.890e9 Hz"
param *.connectionManager.pMax 20mW
param *.connectionManager.sat -89dBm
param *.connectionManager.sendDirect true
param *.manager.autoShutdown true
param *.manager.host "\"localhost\""
param *.manager.launchConfig "xmldoc(\"paramics.launchd.xml\")"
param *.manager.margin 25
param *.manager.moduleDisplayString "\"\""
param *.manager.moduleName "\"node\""
param *.manager.moduleType "\"org.car2x.veins.nodes.Car\""
param *.manager.port 9999
param *.manager.updateInterval 250ms
param *.node[*0].veinsmobility.accidentCount 0
param *.node[*0].veinsmobility.accidentDuration 30s
param *.node[*0].veinsmobility.accidentStart 75s
param *.node[*].appl.LiderSelectZoneRadio 55.0
param *.node[*].appl.ShareDataZoneRadio 110.0
param *.node[*].appl.TiempoSemaforo 30.0
param *.node[*].appl.beaconInterval 1s
param *.node[*].appl.beaconPriority 3
param *.node[*].appl.dataOnSch false
param *.node[*].appl.dataPriority 2
param *.node[*].appl.debug false
param *.node[*].appl.headerLength "256 bit"
param *.node[*].appl.maxOffset 0.005s
param *.node[*].appl.sendBeacons false
param *.node[*].appl.sendData true
param *.node[*].applType "\"Dummy\""
param *.node[*].mobilityType "\"TraCIMobility\""
param *.node[*].mobilityType.debug true
param *.node[*].veinsmobility.x 0
param *.node[*].veinsmobility.y 0
param *.node[*].veinsmobility.z 1.895
param *.node[*].veinsmobilityType "\"org.car2x.veins.modules.mobility.traci.TraCIMobility\""
param *.node[*].veinsmobilityType.debug true
param *.playgroundSizeX 8500m
param *.playgroundSizeY 8500m
param *.playgroundSizeZ 50m
param *.world.use2D false
param *.world.useTorus false

vector 50905  IntersectionExampleScenario.manager  vehiclesinsim  ETV
attr type  int
vector 50906  IntersectionExampleScenario.manager  realtime  ETV
attr type  int
attr unit  s
vector 50909  IntersectionExampleScenario.node[0].veinsmobility  posx  ETV
vector 50910  IntersectionExampleScenario.node[0].veinsmobility  posy  ETV
vector 50911  IntersectionExampleScenario.node[0].veinsmobility  speed  ETV
vector 50912  IntersectionExampleScenario.node[0].veinsmobility  acceleration  ETV
vector 50913  IntersectionExampleScenario.node[0].veinsmobility  co2emission  ETV
vector 50916  IntersectionExampleScenario.node[1].veinsmobility  posx  ETV
vector 50917  IntersectionExampleScenario.node[1].veinsmobility  posy  ETV
vector 50918  IntersectionExampleScenario.node[1].veinsmobility  speed  ETV
vector 50919  IntersectionExampleScenario.node[1].veinsmobility  acceleration  ETV
vector 50920  IntersectionExampleScenario.node[1].veinsmobility  co2emission  ETV
vector 50923  IntersectionExampleScenario.node[2].veinsmobility  posx  ETV
vector 50924  IntersectionExampleScenario.node[2].veinsmobility  posy  ETV
vector 50925  IntersectionExampleScenario.node[2].veinsmobility  speed  ETV
vector 50926  IntersectionExampleScenario.node[2].veinsmobility  acceleration  ETV
vector 50927  IntersectionExampleScenario.node[2].veinsmobility  co2emission  ETV
vector 50930  IntersectionExampleScenario.node[3].veinsmobility  posx  ETV
vector 50931  IntersectionExampleScenario.node[3].veinsmobility  posy  ETV
vector 50932  IntersectionExampleScenario.node[3].veinsmobility  speed  ETV
vector 50933  IntersectionExampleScenario.node[3].veinsmobility  acceleration  ETV
vector 50934  IntersectionExampleScenario.node[3].veinsmobility  co2emission  ETV
vector 50937  IntersectionExampleScenario.node[4].veinsmobility  posx  ETV
vector 50938  IntersectionExampleScenario.node[4].veinsmobility  posy  ETV
vector 50939  IntersectionExampleScenario.node[4].veinsmobility  speed  ETV
vector 50940  IntersectionExampleScenario.node[4].veinsmobility  acceleration  ETV
vector 50941  IntersectionExampleScenario.node[4].veinsmobility  co2emission  ETV
vector 50944  IntersectionExampleScenario.node[5].veinsmobility  posx  ETV
vector 50945  IntersectionExampleScenario.node[5].veinsmobility  posy  ETV
vector 50946  IntersectionExampleScenario.node[5].veinsmobility  speed  ETV
vector 50947  IntersectionExampleScenario.node[5].veinsmobility  acceleration  ETV
vector 50948  IntersectionExampleScenario.node[5].veinsmobility  co2emission  ETV
vector 50951  IntersectionExampleScenario.node[6].veinsmobility  posx  ETV
vector 50952  IntersectionExampleScenario.node[6].veinsmobility  posy  ETV
vector 50953  IntersectionExampleScenario.node[6].veinsmobility  speed  ETV
vector 50954  IntersectionExampleScenario.node[6].veinsmobility  acceleration  ETV
vector 50955  IntersectionExampleScenario.node[6].veinsmobility  co2emission  ETV
vector 50958  IntersectionExampleScenario.node[7].veinsmobility  posx  ETV
vector 50959  IntersectionExampleScenario.node[7].veinsmobility  posy  ETV
vector 50960  IntersectionExampleScenario.node[7].veinsmobility  speed  ETV
vector 50961  IntersectionExampleScenario.node[7].veinsmobility  acceleration  ETV
vector 50962  IntersectionExampleScenario.node[7].veinsmobility  co2emission  ETV
vector 50965  IntersectionExampleScenario.node[8].veinsmobility  posx  ETV
vector 50966  IntersectionExampleScenario.node[8].veinsmobility  posy  ETV
vector 50967  IntersectionExampleScenario.node[8].veinsmobility  speed  ETV
vector 50968  IntersectionExampleScenario.node[8].veinsmobility  acceleration  ETV
vector 50969  IntersectionExampleScenario.node[8].veinsmobility  co2emission  ETV
vector 50972  IntersectionExampleScenario.node[9].veinsmobility  posx  ETV
vector 50973  IntersectionExampleScenario.node[9].veinsmobility  posy  ETV
vector 50979  IntersectionExampleScenario.node[10].veinsmobility  posx  ETV
vector 50980  IntersectionExampleScenario.node[10].veinsmobility  posy  ETV
vector 50974  IntersectionExampleScenario.node[9].veinsmobility  speed  ETV
vector 50981  IntersectionExampleScenario.node[10].veinsmobility  speed  ETV
vector 50975  IntersectionExampleScenario.node[9].veinsmobility  acceleration  ETV
vector 50976  IntersectionExampleScenario.node[9].veinsmobility  co2emission  ETV
vector 50982  IntersectionExampleScenario.node[10].veinsmobility  acceleration  ETV
vector 50983  IntersectionExampleScenario.node[10].veinsmobility  co2emission  ETV
vector 50986  IntersectionExampleScenario.node[11].veinsmobility  posx  ETV
vector 50987  IntersectionExampleScenario.node[11].veinsmobility  posy  ETV
vector 50988  IntersectionExampleScenario.node[11].veinsmobility  speed  ETV
vector 50989  IntersectionExampleScenario.node[11].veinsmobility  acceleration  ETV
vector 50990  IntersectionExampleScenario.node[11].veinsmobility  co2emission  ETV
vector 50993  IntersectionExampleScenario.node[12].veinsmobility  posx  ETV
vector 50994  IntersectionExampleScenario.node[12].veinsmobility  posy  ETV
vector 50995  IntersectionExampleScenario.node[12].veinsmobility  speed  ETV
vector 50996  IntersectionExampleScenario.node[12].veinsmobility  acceleration  ETV
vector 50997  IntersectionExampleScenario.node[12].veinsmobility  co2emission  ETV
vector 51000  IntersectionExampleScenario.node[13].veinsmobility  posx  ETV
vector 51001  IntersectionExampleScenario.node[13].veinsmobility  posy  ETV
vector 51002  IntersectionExampleScenario.node[13].veinsmobility  speed  ETV
vector 51003  IntersectionExampleScenario.node[13].veinsmobility  acceleration  ETV
vector 51004  IntersectionExampleScenario.node[13].veinsmobility  co2emission  ETV
vector 51007  IntersectionExampleScenario.node[14].veinsmobility  posx  ETV
vector 51008  IntersectionExampleScenario.node[14].veinsmobility  posy  ETV
vector 51009  IntersectionExampleScenario.node[14].veinsmobility  speed  ETV
vector 51010  IntersectionExampleScenario.node[14].veinsmobility  acceleration  ETV
vector 51011  IntersectionExampleScenario.node[14].veinsmobility  co2emission  ETV
vector 51014  IntersectionExampleScenario.node[15].veinsmobility  posx  ETV
vector 51015  IntersectionExampleScenario.node[15].veinsmobility  posy  ETV
vector 51021  IntersectionExampleScenario.node[16].veinsmobility  posx  ETV
vector 51022  IntersectionExampleScenario.node[16].veinsmobility  posy  ETV
vector 51016  IntersectionExampleScenario.node[15].veinsmobility  speed  ETV
vector 51017  IntersectionExampleScenario.node[15].veinsmobility  acceleration  ETV
vector 51018  IntersectionExampleScenario.node[15].veinsmobility  co2emission  ETV
vector 51023  IntersectionExampleScenario.node[16].veinsmobility  speed  ETV
vector 51024  IntersectionExampleScenario.node[16].veinsmobility  acceleration  ETV
vector 51025  IntersectionExampleScenario.node[16].veinsmobility  co2emission  ETV
vector 51028  IntersectionExampleScenario.node[17].veinsmobility  posx  ETV
vector 51029  IntersectionExampleScenario.node[17].veinsmobility  posy  ETV
vector 51030  IntersectionExampleScenario.node[17].veinsmobility  speed  ETV
vector 51031  IntersectionExampleScenario.node[17].veinsmobility  acceleration  ETV
vector 51032  IntersectionExampleScenario.node[17].veinsmobility  co2emission  ETV
vector 51035  IntersectionExampleScenario.node[18].veinsmobility  posx  ETV
vector 51036  IntersectionExampleScenario.node[18].veinsmobility  posy  ETV
vector 51037  IntersectionExampleScenario.node[18].veinsmobility  speed  ETV
vector 51038  IntersectionExampleScenario.node[18].veinsmobility  acceleration  ETV
vector 51039  IntersectionExampleScenario.node[18].veinsmobility  co2emission  ETV
vector 51042  IntersectionExampleScenario.node[19].veinsmobility  posx  ETV
vector 51043  IntersectionExampleScenario.node[19].veinsmobility  posy  ETV
vector 51049  IntersectionExampleScenario.node[20].veinsmobility  posx  ETV
vector 51050  IntersectionExampleScenario.node[20].veinsmobility  posy  ETV
vector 51044  IntersectionExampleScenario.node[19].veinsmobility  speed  ETV
vector 51045  IntersectionExampleScenario.node[19].veinsmobility  acceleration  ETV
vector 51046  IntersectionExampleScenario.node[19].veinsmobility  co2emission  ETV
vector 51051  IntersectionExampleScenario.node[20].veinsmobility  speed  ETV
vector 51052  IntersectionExampleScenario.node[20].veinsmobility  acceleration  ETV
vector 51053  IntersectionExampleScenario.node[20].veinsmobility  co2emission  ETV
50934	11307 4658 141 3475 12 48.5 147 0.973 12.44402232946 498.50891995123 2917.9168879266
50933	15965 4192 141 3475 12 48.5 147 -3.5516204833984 2.5 42.415441513062 225.37563009907
50932	20157 4549 132 3475 11.75 48.5 148 5.6500000953674 16.75 2216.1186981201 34069.549615558
50931	24706 4823 123 3475 11.5 48.5 149 237.33013916016 785.82187652588 77958.565818787 44736307.578291
50930	29529 4849 123 3475 11.5 48.5 149 483.14999389648 483.14999389648 71989.349090576 34781653.573724
vector 51056  IntersectionExampleScenario.node[21].veinsmobility  posx  ETV
vector 51057  IntersectionExampleScenario.node[21].veinsmobility  posy  ETV
vector 51058  IntersectionExampleScenario.node[21].veinsmobility  speed  ETV
vector 51059  IntersectionExampleScenario.node[21].veinsmobility  acceleration  ETV
vector 51060  IntersectionExampleScenario.node[21].veinsmobility  co2emission  ETV
vector 51063  IntersectionExampleScenario.node[22].veinsmobility  posx  ETV
vector 51064  IntersectionExampleScenario.node[22].veinsmobility  posy  ETV
vector 51065  IntersectionExampleScenario.node[22].veinsmobility  speed  ETV
vector 51066  IntersectionExampleScenario.node[22].veinsmobility  acceleration  ETV
vector 51067  IntersectionExampleScenario.node[22].veinsmobility  co2emission  ETV
50962	35180 5017 589 5462 22.5 61.5 157 0.973 11.648172402475 489.93848290835 2630.9394071346
50961	40197 4584 589 5462 22.5 61.5 157 -3.2447242736816 2.5 38.341367721558 231.96885522496
50960	44781 4906 572 5462 22.25 61.5 158 5.6500000953674 15.64999961853 2204.4889316559 31683.15473348
50959	49687 5195 555 5462 22 61.5 159 184.17810058594 486.85000610352 63288.768218994 26965347.223754
50958	54882 5206 555 5462 22 61.5 159 237.70812988281 486.85000610352 69056.387145996 30939670.996897
vector 51070  IntersectionExampleScenario.node[23].veinsmobility  posx  ETV
vector 51071  IntersectionExampleScenario.node[23].veinsmobility  posy  ETV
vector 51072  IntersectionExampleScenario.node[23].veinsmobility  speed  ETV
vector 51073  IntersectionExampleScenario.node[23].veinsmobility  acceleration  ETV
vector 51074  IntersectionExampleScenario.node[23].veinsmobility  co2emission  ETV
vector 51077  IntersectionExampleScenario.node[24].veinsmobility  posx  ETV
vector 51078  IntersectionExampleScenario.node[24].veinsmobility  posy  ETV
vector 51079  IntersectionExampleScenario.node[24].veinsmobility  speed  ETV
vector 51080  IntersectionExampleScenario.node[24].veinsmobility  acceleration  ETV
vector 51081  IntersectionExampleScenario.node[24].veinsmobility  co2emission  ETV
vector 51084  IntersectionExampleScenario.node[25].veinsmobility  posx  ETV
vector 51085  IntersectionExampleScenario.node[25].veinsmobility  posy  ETV
vector 51086  IntersectionExampleScenario.node[25].veinsmobility  speed  ETV
vector 51087  IntersectionExampleScenario.node[25].veinsmobility  acceleration  ETV
vector 51088  IntersectionExampleScenario.node[25].veinsmobility  co2emission  ETV
50941	61291 5907 406 6460 19.25 67.5 194 0.973 11.450879080643 554.57173413523 2808.7452468682
50940	67198 5440 406 6460 19.25 67.5 194 -8.2128305435181 4 36.813589096069 486.59835472119
50939	72638 5780 395 6460 19 67.5 195 0 15.375 2205.7468717098 30668.92490501
50938	78418 6429 384 6460 18.75 67.5 196 483.14999389648 483.14999389648 94697.398803711 45753047.654026
50937	84847 6384 384 6460 18.75 67.5 196 184.17810058594 732.10963439941 88741.952148438 44387314.902707
vector 51091  IntersectionExampleScenario.node[26].veinsmobility  posx  ETV
vector 51092  IntersectionExampleScenario.node[26].veinsmobility  posy  ETV
vector 51093  IntersectionExampleScenario.node[26].veinsmobility  speed  ETV
vector 51094  IntersectionExampleScenario.node[26].veinsmobility  acceleration  ETV
vector 51095  IntersectionExampleScenario.node[26].veinsmobility  co2emission  ETV
vector 51098  IntersectionExampleScenario.node[27].veinsmobility  posx  ETV
vector 51099  IntersectionExampleScenario.node[27].veinsmobility  posy  ETV
vector 51100  IntersectionExampleScenario.node[27].veinsmobility  speed  ETV
vector 51101  IntersectionExampleScenario.node[27].veinsmobility  acceleration  ETV
vector 51102  IntersectionExampleScenario.node[27].veinsmobility  co2emission  ETV
50997	92033 5117 1396 7379 32.75 72.25 159 0.973 11.203687369994 470.45847655173 2403.6120604099
50996	97150 4897 1396 7379 32.75 72.25 159 -3.8028144836426 2.5 36.134572982788 195.53462512969
50995	102047 5048 1369 7379 32.5 72.25 160 5.6500000953674 15.029175758362 2220.1081981659 31332.061167589
50994	107095 5314 1342 7379 32.25 72.25 161 483.14999389648 483.14999389648 77787.149017334 37582860.57295
50993	112409 5285 1342 7379 32.25 72.25 161 184.17810058594 734.11140441895 72408.773147583 36837320.288623
vector 51105  IntersectionExampleScenario.node[28].veinsmobility  posx  ETV
vector 51106  IntersectionExampleScenario.node[28].veinsmobility  posy  ETV
vector 51107  IntersectionExampleScenario.node[28].veinsmobility  speed  ETV
vector 51112  IntersectionExampleScenario.node[29].veinsmobility  posx  ETV
vector 51113  IntersectionExampleScenario.node[29].veinsmobility  posy  ETV
vector 51108  IntersectionExampleScenario.node[28].veinsmobility  acceleration  ETV
vector 51109  IntersectionExampleScenario.node[28].veinsmobility  co2emission  ETV
vector 51114  IntersectionExampleScenario.node[29].veinsmobility  speed  ETV
vector 51115  IntersectionExampleScenario.node[29].veinsmobility  acceleration  ETV
vector 51116  IntersectionExampleScenario.node[29].veinsmobility  co2emission  ETV
vector 51119  IntersectionExampleScenario.node[30].veinsmobility  posx  ETV
vector 51120  IntersectionExampleScenario.node[30].veinsmobility  posy  ETV
vector 51121  IntersectionExampleScenario.node[30].veinsmobility  speed  ETV
vector 51122  IntersectionExampleScenario.node[30].veinsmobility  acceleration  ETV
vector 51123  IntersectionExampleScenario.node[30].veinsmobility  co2emission  ETV
vector 51126  IntersectionExampleScenario.node[31].veinsmobility  posx  ETV
vector 51127  IntersectionExampleScenario.node[31].veinsmobility  posy  ETV
vector 51128  IntersectionExampleScenario.node[31].veinsmobility  speed  ETV
vector 51129  IntersectionExampleScenario.node[31].veinsmobility  acceleration  ETV
vector 51130  IntersectionExampleScenario.node[31].veinsmobility  co2emission  ETV
vector 51133  IntersectionExampleScenario.node[32].veinsmobility  posx  ETV
vector 51134  IntersectionExampleScenario.node[32].veinsmobility  posy  ETV
vector 51135  IntersectionExampleScenario.node[32].veinsmobility  speed  ETV
vector 51140  IntersectionExampleScenario.node[33].veinsmobility  posx  ETV
vector 51141  IntersectionExampleScenario.node[33].veinsmobility  posy  ETV
vector 51136  IntersectionExampleScenario.node[32].veinsmobility  acceleration  ETV
vector 51137  IntersectionExampleScenario.node[32].veinsmobility  co2emission  ETV
vector 51142  IntersectionExampleScenario.node[33].veinsmobility  speed  ETV
vector 51143  IntersectionExampleScenario.node[33].veinsmobility  acceleration  ETV
vector 51144  IntersectionExampleScenario.node[33].veinsmobility  co2emission  ETV
vector 51147  IntersectionExampleScenario.node[34].veinsmobility  posx  ETV
vector 51148  IntersectionExampleScenario.node[34].veinsmobility  posy  ETV
vector 51149  IntersectionExampleScenario.node[34].veinsmobility  speed  ETV
vector 51150  IntersectionExampleScenario.node[34].veinsmobility  acceleration  ETV
vector 51151  IntersectionExampleScenario.node[34].veinsmobility  co2emission  ETV
vector 51154  IntersectionExampleScenario.node[35].veinsmobility  posx  ETV
vector 51155  IntersectionExampleScenario.node[35].veinsmobility  posy  ETV
vector 51156  IntersectionExampleScenario.node[35].veinsmobility  speed  ETV
vector 51157  IntersectionExampleScenario.node[35].veinsmobility  acceleration  ETV
vector 51158  IntersectionExampleScenario.node[35].veinsmobility  co2emission  ETV
vector 51161  IntersectionExampleScenario.node[36].veinsmobility  posx  ETV
vector 51162  IntersectionExampleScenario.node[36].veinsmobility  posy  ETV
vector 51163  IntersectionExampleScenario.node[36].veinsmobility  speed  ETV
vector 51164  IntersectionExampleScenario.node[36].veinsmobility  acceleration  ETV
vector 51165  IntersectionExampleScenario.node[36].veinsmobility  co2emission  ETV
vector 51168  IntersectionExampleScenario.node[37].veinsmobility  posx  ETV
vector 51169  IntersectionExampleScenario.node[37].veinsmobility  posy  ETV
vector 51175  IntersectionExampleScenario.node[38].veinsmobility  posx  ETV
vector 51176  IntersectionExampleScenario.node[38].veinsmobility  posy  ETV
vector 51170  IntersectionExampleScenario.node[37].veinsmobility  speed  ETV
vector 51171  IntersectionExampleScenario.node[37].veinsmobility  acceleration  ETV
vector 51172  IntersectionExampleScenario.node[37].veinsmobility  co2emission  ETV
vector 51177  IntersectionExampleScenario.node[38].veinsmobility  speed  ETV
vector 51182  IntersectionExampleScenario.node[39].veinsmobility  posx  ETV
vector 51183  IntersectionExampleScenario.node[39].veinsmobility  posy  ETV
vector 51178  IntersectionExampleScenario.node[38].veinsmobility  acceleration  ETV
vector 51179  IntersectionExampleScenario.node[38].veinsmobility  co2emission  ETV
vector 51184  IntersectionExampleScenario.node[39].veinsmobility  speed  ETV
vector 51185  IntersectionExampleScenario.node[39].veinsmobility  acceleration  ETV
vector 51186  IntersectionExampleScenario.node[39].veinsmobility  co2emission  ETV
vector 51189  IntersectionExampleScenario.node[40].veinsmobility  posx  ETV
vector 51190  IntersectionExampleScenario.node[40].veinsmobility  posy  ETV
vector 51191  IntersectionExampleScenario.node[40].veinsmobility  speed  ETV
vector 51192  IntersectionExampleScenario.node[40].veinsmobility  acceleration  ETV
vector 51193  IntersectionExampleScenario.node[40].veinsmobility  co2emission  ETV
vector 51196  IntersectionExampleScenario.node[41].veinsmobility  posx  ETV
vector 51197  IntersectionExampleScenario.node[41].veinsmobility  posy  ETV
vector 51198  IntersectionExampleScenario.node[41].veinsmobility  speed  ETV
50913	123139 10332 32 14495 6.75 103.25 387 0.973 11.648172402475 756.80848966817 3126.9159943495
50912	133471 8958 32 14495 6.75 103.25 387 -6.8117866516113 4 38.850629806519 469.91515502781
50911	142429 9402 29 14495 6.5 103.25 388 0 15.64999961853 2207.1536474228 31385.929364603
50910	151831 12803 26 14495 6.25 103.25 389 235.67944335938 486.85000610352 180967.69161987 85414562.10069
50909	164634 12799 26 14495 6.25 103.25 389 483.14999389648 785.82187652588 205561.19638824 110900571.74829
vector 51199  IntersectionExampleScenario.node[41].veinsmobility  acceleration  ETV
vector 51200  IntersectionExampleScenario.node[41].veinsmobility  co2emission  ETV
50920	177602 10736 63 14856 9 104.75 384 0.973 11.810082123732 757.72340538011 3209.9934071627
50919	188338 10171 63 14856 9 104.75 384 -4.5 2.5 38.511121749878 438.48748708186
50918	198509 10170 58 14856 8.75 104.75 385 0 15.875 2256.0058604851 31363.364437042
50917	208679 12741 53 14856 8.5 104.75 386 486.85000610352 734.25382995605 196150.3825531 100854408.98743
50916	221420 12729 53 14856 8.5 104.75 386 486.85000610352 802.70781707764 207266.50170898 113811094.03364
50927	234149 11240 102 15603 10.75 108 390 0.973 10.832178436483 728.15125604927 2621.6894515076
50926	245389 11055 102 15603 10.75 108 390 -3.9386286735535 2.5 34.097539901733 316.22039003356
50925	256444 11350 95 15603 10.5 108 391 0 14.506797790527 2326.1424277183 29357.507329736
50924	267794 12990 88 15603 10.25 108 392 486.85000610352 486.85000610352 190845.20239258 92912987.949654
50923	280784 12962 88 15603 10.25 108 392 236.28820800781 813.50078582764 204930.32597351 112262822.70466
50948	293746 10501 454 16043 20.25 110 360 0.973 11.810082123732 722.19759722807 3114.848453563
50947	304247 10761 454 16043 20.25 110 360 -3.8117160797119 2.5000009536743 38.511121749878 377.28242352777
50946	315008 10690 441 16043 20 110 361 0 15.875 2189.878474432 28432.821025191
50945	325698 12050 428 16043 19.75 110 362 486.85000610352 734.68583679199 184498.79263306 95204927.74962
50944	337748 12036 428 16043 19.75 110 362 486.85000610352 785.82187652588 196942.77706146 109151814.92284
50955	349784 11110 510 16415 21.25 111.75 363 0.973 11.648172402475 756.94702301658 3223.0492079558
50954	360894 11069 510 16415 21.25 111.75 363 -4.5 2.5 38.511121749878 517.91863479623
50953	371963 11185 495 16415 21 111.75 364 0 15.64999961853 2295.425345879 30649.156209721
50952	383148 12171 480 16415 20.75 111.75 365 237.59356689453 486.85000610352 169362.76553345 79779402.603876
50951	395319 12145 480 16415 20.75 111.75 365 483.12799072266 807.99687957764 201137.06837463 113235296.97245
vector 51203  IntersectionExampleScenario.node[42].veinsmobility  posx  ETV
vector 51204  IntersectionExampleScenario.node[42].veinsmobility  posy  ETV
vector 51205  IntersectionExampleScenario.node[42].veinsmobility  speed  ETV
vector 51206  IntersectionExampleScenario.node[42].veinsmobility  acceleration  ETV
vector 51207  IntersectionExampleScenario.node[42].veinsmobility  co2emission  ETV
50976	407865 10264 1148 16781 30.25 113.5 334 0.973 12.099024792222 749.5452752745 3609.633860543
50975	418129 10587 1148 16781 30.25 113.5 334 -3.973245382309 2.5 41.396924972534 455.91095204918
50974	428716 10658 1125 16781 30 113.5 335 0 16.27499961853 2178.6127934307 28720.624544536
50973	439374 11254 1102 16781 29.75 113.5 336 486.85000610352 731.43643188477 171301.96884155 88409016.280338
50972	450628 11239 1102 16781 29.75 113.5 336 486.84344482422 785.82187652588 185698.76572418 104485302.62388
50990	461867 9770 1267 17147 31.5 115.25 336 0.973 11.889322267204 733.61412514428 3321.5470135795
50989	471637 9252 1267 17147 31.5 115.25 336 -4.5 2.5000001192093 39.190130233765 510.44930707281
50988	480889 9606 1242 17147 31.25 115.25 337 0 15.984892845154 2296.9505242035 31087.924688073
50987	490495 11340 1217 17147 31 115.25 338 486.85000610352 486.85000610352 164555.30206299 80113749.813732
50986	501835 11319 1217 17147 31 115.25 338 238.53540039062 807.09531402588 181499.69684601 102027573.30683
vector 51210  IntersectionExampleScenario.node[43].veinsmobility  posx  ETV
vector 51211  IntersectionExampleScenario.node[43].veinsmobility  posy  ETV
vector 51212  IntersectionExampleScenario.node[43].veinsmobility  speed  ETV
vector 51217  IntersectionExampleScenario.node[44].veinsmobility  posx  ETV
vector 51218  IntersectionExampleScenario.node[44].veinsmobility  posy  ETV
vector 51213  IntersectionExampleScenario.node[43].veinsmobility  acceleration  ETV
vector 51214  IntersectionExampleScenario.node[43].veinsmobility  co2emission  ETV
vector 51219  IntersectionExampleScenario.node[44].veinsmobility  speed  ETV
vector 51220  IntersectionExampleScenario.node[44].veinsmobility  acceleration  ETV
vector 51221  IntersectionExampleScenario.node[44].veinsmobility  co2emission  ETV
51039	513956 8381 3033 17818 45.5 118.5 293 0.973 11.810082123732 688.58796064668 3433.3707654177
51038	522337 8461 3033 17818 45.5 118.5 293 -3.6166408061981 2.5 38.850629806519 459.1994989404
51037	530798 8496 2997 17818 45.25 118.5 294 0 15.875 2180.2341466844 27831.458604559
51036	539294 9940 2960 17818 45 118.5 295 486.85000610352 732.52491760254 151703.49562073 79110862.221681
51035	549234 9923 2960 17818 45 118.5 295 486.83114624023 785.82187652588 165871.98558807 95062482.088687
51067	559157 7267 5188 18124 59.75 120 242 0.973 12.099024792222 636.64092872385 3394.7626005326
51066	566424 7737 5188 18124 59.75 120 242 -2.6683940887451 2.5 41.396924972534 368.62936359429
51065	574161 7957 5149 18124 59.5 120 243 0.034338228404522 16.27499961853 2178.2435790375 28066.098546064
51064	582118 8273 5110 18124 59.25 120 244 486.85000610352 731.88963317871 126543.06039429 66640395.34092
51063	590391 8266 5110 18124 59.25 120 244 486.85000610352 785.82187652588 138624.56505585 80504693.957816
vector 51224  IntersectionExampleScenario.node[45].veinsmobility  posx  ETV
vector 51225  IntersectionExampleScenario.node[45].veinsmobility  posy  ETV
vector 51226  IntersectionExampleScenario.node[45].veinsmobility  speed  ETV
vector 51227  IntersectionExampleScenario.node[45].veinsmobility  acceleration  ETV
vector 51228  IntersectionExampleScenario.node[45].veinsmobility  co2emission  ETV
51074	599058 7506 5700 18626 63 122.5 239 0.973 11.450879080643 624.85498698174 3093.3820009615
51073	606564 7775 5700 18626 63 122.5 239 -4.0368194580078 2.5 37.32285118103 400.05647588482
51072	614339 7855 5659 18626 62.75 122.5 240 0 15.375 2251.6458507497 28927.935353381
51071	622194 8193 5618 18626 62.5 122.5 241 237.09814453125 486.85000610352 108806.7928772 50241687.970356
51070	630387 8177 5618 18626 62.5 122.5 241 483.14999389648 797.07032012939 137676.17946625 80644261.015454
51095	638564 6977 6599 18626 68.25 122.5 218 0.973 11.990504229548 613.15002809175 3142.7166372039
51094	645541 7053 6599 18626 68.25 122.5 218 -4.5 2.5 41.227170944214 405.46225712851
51093	652594 7211 6552 18626 68 122.5 219 0 16.125 2114.8583373837 28061.909867266
51092	659805 7505 6505 18626 67.75 122.5 220 486.85000610352 486.85000610352 107107.00134277 52145044.257458
51091	667310 7479 6505 18626 67.75 122.5 220 239.14532470703 763.00743103027 117020.95964813 65938914.360662
vector 51231  IntersectionExampleScenario.node[46].veinsmobility  posx  ETV
vector 51232  IntersectionExampleScenario.node[46].veinsmobility  posy  ETV
vector 51233  IntersectionExampleScenario.node[46].veinsmobility  speed  ETV
vector 51234  IntersectionExampleScenario.node[46].veinsmobility  acceleration  ETV
vector 51235  IntersectionExampleScenario.node[46].veinsmobility  co2emission  ETV
51088	675190 7642 6370 19494 67 126.75 240 0.973 11.619431931722 674.28112465071 3449.2268421728
51087	682832 7578 6370 19494 67 126.75 240 -4.5 2.5 38.171613693237 554.17769414465
51086	690410 7921 6325 19494 66.75 126.75 241 0 15.704758644104 2226.1465278305 27756.746913489
51085	698331 8260 6280 19494 66.5 126.75 242 486.85000610352 732.40399169922 125975.53330994 66634383.93741
51084	706591 8249 6280 19494 66.5 126.75 242 486.85000610352 797.64610290527 140365.06557465 83524709.04866
vector 51238  IntersectionExampleScenario.node[47].veinsmobility  posx  ETV
vector 51239  IntersectionExampleScenario.node[47].veinsmobility  posy  ETV
vector 51240  IntersectionExampleScenario.node[47].veinsmobility  speed  ETV
vector 51241  IntersectionExampleScenario.node[47].veinsmobility  acceleration  ETV
vector 51242  IntersectionExampleScenario.node[47].veinsmobility  co2emission  ETV
51102	715241 7605 6791 19808 69.25 128.25 237 0.973 11.54047740176 627.97683236079 2963.0409505328
51101	722846 7724 6791 19808 69.25 128.25 237 -4.5 2.5 36.98334312439 437.81277867762
51100	730570 7875 6742 19808 69 128.25 238 0 15.5 2312.5261482373 29488.904677067
51099	738445 8178 6693 19808 68.75 128.25 239 486.85000610352 486.85000610352 116357.15145874 56648479.897875
51098	746623 8150 6693 19808 68.75 128.25 239 236.45068359375 809.42916870117 131078.74287415 76892572.808508
vector 51245  IntersectionExampleScenario.node[48].veinsmobility  posx  ETV
vector 51246  IntersectionExampleScenario.node[48].veinsmobility  posy  ETV
vector 51247  IntersectionExampleScenario.node[48].veinsmobility  speed  ETV
vector 51248  IntersectionExampleScenario.node[48].veinsmobility  acceleration  ETV
vector 51249  IntersectionExampleScenario.node[48].veinsmobility  co2emission  ETV
51109	755174 7264 7677 20270 73.75 130.5 228 0.973 11.90022389248 652.8005969585 3428.8034992071
51108	762438 7203 7677 20270 73.75 130.5 228 -7.55029296875 2.5000009536743 39.190130233765 575.86381331265
51107	769641 7302 7626 20270 73.5 130.5 229 -0.47107291221619 16 2268.8888279535 30074.521049126
51106	776943 7885 7575 20270 73.25 130.5 230 238.61157226562 486.85000610352 103796.96563721 47904301.29288
51105	784828 7881 7575 20270 73.25 130.5 230 483.14514160156 802.7561340332 133370.24777222 79375473.394145
51130	792709 6570 9099 20608 80.25 132.25 209 0.973 11.54047740176 588.62119878188 2931.1569789578
51129	799279 6781 9099 20608 80.25 132.25 209 -3.2676086425781 2.5 37.32285118103 329.98223006678
51128	806060 7004 9042 20608 80 132.25 210 1.6936635971069 15.5 2207.7712304592 27489.24079133
51127	813064 7286 8985 20608 79.75 132.25 211 486.85000610352 486.85000610352 102725.35128784 50011837.901471
51126	820350 7261 8985 20608 79.75 132.25 211 238.69390869141 785.82187652588 114126.18717194 66152883.411249
vector 51252  IntersectionExampleScenario.node[49].veinsmobility  posx  ETV
vector 51253  IntersectionExampleScenario.node[49].veinsmobility  posy  ETV
vector 51254  IntersectionExampleScenario.node[49].veinsmobility  speed  ETV
vector 51255  IntersectionExampleScenario.node[49].veinsmobility  acceleration  ETV
vector 51256  IntersectionExampleScenario.node[49].veinsmobility  co2emission  ETV
51137	828012 6723 9673 20929 82.75 134 206 0.973 11.200708441096 585.97507933794 2765.1597357381
51136	834735 6594 9673 20929 82.75 134 206 -4.5 2.5 38.511121749878 361.13416098375
51135	841329 6958 9614 20929 82.5 134 207 1.6109354496002 15.335498809814 2280.822483778 29659.203844584
51134	848287 7201 9555 20929 82.25 134 208 486.85000610352 486.85000610352 101264.80126953 49300769.116142
51133	855488 7181 9555 20929 82.25 134 208 236.20599365234 801.41563415527 113151.01230621 66239742.804111
vector 51259  IntersectionExampleScenario.node[50].veinsmobility  posx  ETV
vector 51260  IntersectionExampleScenario.node[50].veinsmobility  posy  ETV
vector 51261  IntersectionExampleScenario.node[50].veinsmobility  speed  ETV
51158	862901 5479 12154 21155 93.25 135.25 169 0.973 12.099024792222 560.85841555725 3249.0789702836
51157	868380 5423 12154 21155 93.25 135.25 169 -3.2664070129395 2.5 41.227170944214 278.11241715492
51156	873803 5692 12095 21155 93 135.25 170 5.6500000953674 16.27499961853 2222.1014318466 30214.227872318
51155	879495 5956 12036 21155 92.75 135.25 171 486.85000610352 486.85000610352 83251.351043701 40530920.763752
51154	885451 5941 12036 21155 92.75 135.25 171 235.64495849609 785.82187652588 90869.702079773 52481486.544629
vector 51262  IntersectionExampleScenario.node[50].veinsmobility  acceleration  ETV
vector 51263  IntersectionExampleScenario.node[50].veinsmobility  co2emission  ETV
vector 51266  IntersectionExampleScenario.node[51].veinsmobility  posx  ETV
vector 51267  IntersectionExampleScenario.node[51].veinsmobility  posy  ETV
vector 51268  IntersectionExampleScenario.node[51].veinsmobility  speed  ETV
vector 51269  IntersectionExampleScenario.node[51].veinsmobility  acceleration  ETV
vector 51270  IntersectionExampleScenario.node[51].veinsmobility  co2emission  ETV
vector 51273  IntersectionExampleScenario.node[52].veinsmobility  posx  ETV
vector 51274  IntersectionExampleScenario.node[52].veinsmobility  posy  ETV
vector 51275  IntersectionExampleScenario.node[52].veinsmobility  speed  ETV
vector 51276  IntersectionExampleScenario.node[52].veinsmobility  acceleration  ETV
vector 51277  IntersectionExampleScenario.node[52].veinsmobility  co2emission  ETV
51193	892363 5340 14197 22090 102 140.75 156 0.973 11.54047740176 464.31957072448 2348.4907283196
51192	897703 5206 14197 22090 102 140.75 156 -3.7115173339844 2.5 37.15309715271 189.57048249082
51191	902909 5258 14136 22090 101.75 140.75 157 5.6500000953674 15.5 2214.7460927963 31815.233628403
51190	908167 5531 14075 22090 101.5 140.75 158 486.85000610352 486.85000610352 76922.300964355 37449622.693993
51189	913698 5512 14075 22090 101.5 140.75 158 237.236328125 785.82187652588 82373.397438049 47134568.591405
vector 51280  IntersectionExampleScenario.node[53].veinsmobility  posx  ETV
vector 51281  IntersectionExampleScenario.node[53].veinsmobility  posy  ETV
vector 51282  IntersectionExampleScenario.node[53].veinsmobility  speed  ETV
vector 51283  IntersectionExampleScenario.node[53].veinsmobility  acceleration  ETV
vector 51284  IntersectionExampleScenario.node[53].veinsmobility  co2emission  ETV
vector 51287  IntersectionExampleScenario.node[54].veinsmobility  posx  ETV
vector 51288  IntersectionExampleScenario.node[54].veinsmobility  posy  ETV
vector 51289  IntersectionExampleScenario.node[54].veinsmobility  speed  ETV
vector 51290  IntersectionExampleScenario.node[54].veinsmobility  acceleration  ETV
vector 51291  IntersectionExampleScenario.node[54].veinsmobility  co2emission  ETV
50969	920012 12773 950 22763 27.75 145.25 471 0.97223939240464 11.648172402475 844.2683541096 3256.8293890488
50968	932785 11144 950 22763 27.75 145.25 471 -42.130271911621 4 38.680875778198 2102.6817379976
50967	943929 11384 931 22763 27.5 145.25 472 0 15.64999961853 2218.7825651169 32209.972688293
50966	955313 16002 912 22763 27.25 145.25 473 184.17810058594 734.53523254395 219587.06515503 106146298.46898
50965	971315 16032 912 22763 27.25 145.25 473 486.85000610352 486.85000610352 230280.05288696 112111845.15354
51116	987347 8433 7783 22763 74.25 145.25 285 0.973 11.648172402475 652.36701423921 2999.3787014081
51115	995780 7596 7783 22763 74.25 145.25 285 -7.7750473022461 4 38.511121749878 474.84353805943
51114	1003376 7893 7730 22763 74 145.25 286 0 15.64999961853 2179.4024147987 30681.26527552
51113	1011269 9887 7677 22763 73.75 145.25 287 486.63604736328 785.82187652588 155015.42835236 85853022.849502
51112	1021156 9831 7677 22763 73.75 145.25 287 236.36462402344 483.14999389648 130465.92849731 60417935.430928
51144	1030987 8074 9795 22911 83.25 146.25 253 0.973 11.90022389248 625.60923392374 3093.4576176421
51143	1039061 8477 9795 22911 83.25 146.25 253 -3.9503827095032 2.5 39.869146347046 352.2421969979
51142	1047538 8558 9734 22911 83 146.25 254 0 16 2206.6703911098 29794.516563583
51141	1056096 8818 9673 22911 82.75 146.25 255 483.13537597656 785.82187652588 139977.79650116 78832504.080446
51140	1064914 8829 9673 22911 82.75 146.25 255 483.14999389648 732.89265441895 131395.42750549 68804354.829273
50983	1073743 13325 1148 23122 30.25 147.75 471 0.973 11.200708441096 836.03794219724 3034.9179733156
50982	1087068 12500 1148 23122 30.25 147.75 471 -4.5 2.5 37.15309715271 406.98274938311
50981	1099568 12703 1125 23122 30 147.75 472 0 15.328872680664 2280.7789969323 31351.610322704
50980	1112271 16001 1102 23122 29.75 147.75 473 168.58435058594 734.28894042969 216112.36047363 103381832.2082
50979	1128272 16057 1102 23122 29.75 147.75 473 486.85000610352 486.85000610352 230280.05288696 112111845.15354
51151	1144329 7192 11694 23157 91.25 148 228 0.973 12.099024792222 612.15807734585 3271.5511392724
51150	1151521 7398 11694 23157 91.25 148 228 -3.851991891861 2.5 41.057416915894 363.08308979565
51149	1158919 7770 11636 23157 91 148 229 0 16.27499961853 2222.9770808145 29917.511820175
51148	1166689 7989 11577 23157 90.75 148 230 235.21197509766 785.82187652588 120225.95214081 66933195.075636
51147	1174678 8012 11577 23157 90.75 148 230 483.14999389648 483.14999389648 111124.49859619 53689800.8185
51011	1182690 12925 1721 23262 35.75 148.75 453 0.973 12.128567888789 856.63737851449 3474.0355790326
51010	1195615 12639 1721 23262 35.75 148.75 453 -4.5 2.5 42.663145065308 433.84644812394
51009	1208254 12656 1692 23262 35.5 148.75 454 0 16.343717575073 2125.2290942306 29260.335891495
51008	1220910 15436 1663 23262 35.25 148.75 455 206.82574462891 733.63754272461 208252.57395935 98932812.452377
51007	1236346 15472 1663 23262 35.25 148.75 455 486.85000610352 486.85000610352 221516.7527771 107845432.44156
vector 51294  IntersectionExampleScenario.node[55].veinsmobility  posx  ETV
vector 51295  IntersectionExampleScenario.node[55].veinsmobility  posy  ETV
vector 51296  IntersectionExampleScenario.node[55].veinsmobility  speed  ETV
vector 51297  IntersectionExampleScenario.node[55].veinsmobility  acceleration  ETV
vector 51298  IntersectionExampleScenario.node[55].veinsmobility  co2emission  ETV
51179	1252219 6829 13297 23672 98.25 151.75 215 0.973 11.093806525473 532.35743013102 2455.6775199698
51178	1259048 7186 13297 23672 98.25 151.75 215 -3.8964989185333 2.5000009536743 34.437047958374 302.40049485318
51177	1266234 7343 13238 23672 98 151.75 216 0 14.875 2209.7487999499 27801.732094626
51176	1273577 7567 13179 23672 97.75 151.75 217 238.23504638672 785.82187652588 113468.48460388 63668020.047807
51175	1281144 7587 13179 23672 97.75 151.75 217 483.14999389648 483.14999389648 104843.54867554 50655159.902671
vector 51301  IntersectionExampleScenario.node[56].veinsmobility  posx  ETV
vector 51302  IntersectionExampleScenario.node[56].veinsmobility  posy  ETV
vector 51303  IntersectionExampleScenario.node[56].veinsmobility  speed  ETV
vector 51304  IntersectionExampleScenario.node[56].veinsmobility  acceleration  ETV
vector 51305  IntersectionExampleScenario.node[56].veinsmobility  co2emission  ETV
51004	1289132 14072 1582 23836 34.5 153 475 0.973 10.916047529558 840.19437541425 2918.3536010022
51003	1303204 13585 1582 23836 34.5 153 475 -4.5 2.5 35.795072555542 420.78475888114
51002	1316789 13679 1555 23836 34.25 153 476 0 14.750860214233 2231.7139822831 27794.74641358
51001	1330468 16197 1528 23836 34 153 477 172.02032470703 483.14999389648 204070.72994995 89877588.771447
51000	1346665 16224 1528 23836 34 153 477 486.85000610352 732.95274353027 240744.24734497 122746324.29906
51186	1362889 7120 13419 23968 98.75 154 222 0.973 11.883004228129 637.35677984001 3041.4457309457
51185	1370009 7545 13419 23968 98.75 154 222 -4.5 2.5 41.304544448853 433.04006935143
51184	1377554 7750 13358 23968 98.5 154 223 0 15.976136207581 2301.6319424659 29554.064438049
51183	1385304 7813 13297 23968 98.25 154 224 483.14999389648 809.56562805176 127573.13854218 74933805.619169
51182	1393117 7826 13297 23968 98.25 154 224 483.14999389648 732.75967407227 116856.7800293 62066300.124275
vector 51308  IntersectionExampleScenario.node[57].veinsmobility  posx  ETV
vector 51309  IntersectionExampleScenario.node[57].veinsmobility  posy  ETV
51025	1401097 14359 1934 24100 37.5 155 471 0.973 12.44402232946 917.19180719359 3583.4818682852
51024	1415456 14453 1934 24100 37.5 155 471 -4.5 2.5 42.924703598022 532.40763325473
51023	1429909 14327 1901 24100 37.25 155 472 0 16.75 2356.8474020939 31346.400635386
51022	1444236 16055 1868 24100 37 155 473 148.91589355469 732.6728515625 204346.36595154 93219684.003319
51021	1460291 16112 1868 24100 37 155 473 486.84997558594 486.85003662109 230280.05291748 112111845.18325
vector 51310  IntersectionExampleScenario.node[57].veinsmobility  speed  ETV
51018	1476481 14051 1901 24135 37.25 155.25 473 0.973 11.686240078611 908.51061133904 3518.2813750715
51017	1490532 14225 1901 24135 37.25 155.25 473 -4.5 2.5 40.21043586731 539.36384638287
51016	1504757 14158 1868 24135 37 155.25 474 0 15.715638160706 2268.4927670276 29012.408322662
51015	1518915 16156 1837 24135 36.75 155.25 475 162.4755859375 483.33746337891 201254.809021 87727669.96608
51014	1535071 16172 1837 24135 36.75 155.25 475 486.85000610352 732.4811706543 239302.43080139 121741242.68491
51200	1551243 6770 14556 24135 103.5 155.25 208 0.973 11.200708441096 561.48718582785 2802.8165478315
51199	1558013 6796 14556 24135 103.5 155.25 208 -4.9053573608398 2.5000019073486 35.795072555542 380.56731531674
51198	1564809 7078 14495 24135 103.25 155.25 209 0 15.02499961853 2262.1055675671 29405.502778133
51197	1571887 7324 14434 24135 103 155.25 210 238.51550292969 798.4547958374 111259.98399353 63479720.242317
51196	1579211 7349 14434 24135 103 155.25 210 483.14999389648 483.14999389648 101461.49871826 49021122.486456
vector 51311  IntersectionExampleScenario.node[57].veinsmobility  acceleration  ETV
vector 51312  IntersectionExampleScenario.node[57].veinsmobility  co2emission  ETV
vector 51315  IntersectionExampleScenario.node[58].veinsmobility  posx  ETV
vector 51316  IntersectionExampleScenario.node[58].veinsmobility  posy  ETV
vector 51317  IntersectionExampleScenario.node[58].veinsmobility  speed  ETV
vector 51318  IntersectionExampleScenario.node[58].veinsmobility  acceleration  ETV
vector 51319  IntersectionExampleScenario.node[58].veinsmobility  co2emission  ETV
51214	1587130 5430 17503 24419 117 157.25 162 0.97223939240464 11.648172402475 530.81384494254 3026.6561834952
51213	1592560 5159 17503 24419 117 157.25 162 -3.9006881713867 2.5 38.680875778198 268.32401188396
51212	1597719 5486 17452 24419 116.75 157.25 163 5.6500000953674 15.64999961853 2223.8198213577 31120.745992494
51211	1603205 5727 17401 24419 116.5 157.25 164 235.08355712891 785.82187652588 85703.804985046 48969269.864366
51210	1608932 5740 17401 24419 116.5 157.25 164 483.14999389648 483.14999389648 79236.598999023 38283162.322756
51032	1614672 13701 2400 24669 41 159 473 0.973 11.648172402475 871.37445551456 3377.8811597442
51031	1628373 12996 2400 24669 41 159 473 -4.5 2.5 38.171613693237 568.48790177098
51030	1641369 13184 2365 24669 40.75 159 474 0 15.64999961853 2299.773103524 29225.010091591
51029	1654553 16183 2330 24669 40.5 159 475 155.04992675781 483.14999389648 196521.29571533 83746369.112739
51028	1670736 16207 2330 24669 40.5 159 475 486.84997558594 732.57318115234 239423.60002136 121875185.56259
vector 51322  IntersectionExampleScenario.node[59].veinsmobility  posx  ETV
vector 51323  IntersectionExampleScenario.node[59].veinsmobility  posy  ETV
51046	1687097 13017 3319 24914 47.5 160.75 454 0.973 11.499813057596 843.97148828645 3340.7494169189
51045	1700114 12896 3319 24914 47.5 160.75 454 -4.5 4 40.208753585815 441.64375770665
51044	1713010 12825 3280 24914 47.25 160.75 455 0 15.766278266907 2179.1992565323 27962.148798233
51043	1725835 15546 3243 24914 47 160.75 456 184.17810058594 483.28338623047 188691.77359009 79920103.644213
51042	1741381 15588 3243 24914 47 160.75 456 486.85000610352 732.24758911133 229918.05368042 117076249.32035
vector 51324  IntersectionExampleScenario.node[59].veinsmobility  speed  ETV
vector 51325  IntersectionExampleScenario.node[59].veinsmobility  acceleration  ETV
vector 51326  IntersectionExampleScenario.node[59].veinsmobility  co2emission  ETV
51053	1757216 13895 3358 25168 47.75 162.5 460 0.973 11.54047740176 878.33231956444 3328.0749525931
51052	1771111 15596 3358 25168 47.75 162.5 460 -4.5 2.5 37.15309715271 491.8424506532
51051	1786707 15641 3319 25168 47.5 162.5 461 0 15.5 2315.8441618079 29739.487568249
51050	1802348 15772 3280 25168 47.25 162.5 462 159.76721191406 734.44218444824 195885.44477844 87991533.460098
51049	1818120 15812 3280 25168 47.25 162.5 462 486.85000610352 486.85000610352 224924.70281982 109504592.94066
51060	1833932 13139 4279 25588 53.75 165.5 448 0.973 11.648172402475 853.89311997671 3537.2903607914
51059	1847071 12736 4279 25588 53.75 165.5 448 -4.3578453063965 2.5 38.171613693237 471.88762653959
51058	1859807 12764 4240 25588 53.5 165.5 449 0 15.64999961853 2207.2426294219 28378.248633631
51057	1872571 15408 4201 25588 53.25 165.5 450 178.11047363281 483.14999389648 182568.34954834 75947415.92068
51056	1887979 15417 4201 25588 53.25 165.5 450 486.85000610352 733.04737854004 227288.10221863 115992188.5663
vector 51329  IntersectionExampleScenario.node[60].veinsmobility  posx  ETV
vector 51330  IntersectionExampleScenario.node[60].veinsmobility  posy  ETV
vector 51331  IntersectionExampleScenario.node[60].veinsmobility  speed  ETV
vector 51332  IntersectionExampleScenario.node[60].veinsmobility  acceleration  ETV
vector 51333  IntersectionExampleScenario.node[60].veinsmobility  co2emission  ETV
51081	1903797 11940 6237 25697 66.25 166.25 401 0.973 12.099024792222 803.05284480773 3529.6426193506
51080	1915737 12072 6237 25697 66.25 166.25 401 -3.9156517982483 2.5 41.227170944214 365.40742286555
51079	1927809 12064 6194 25697 66 166.25 402 0 16.27499961853 2208.0384806152 28090.791743209
51078	1939873 13842 6151 25697 65.75 166.25 403 184.17810058594 486.88088989258 161609.50244141 66592868.243231
51077	1953715 13887 6151 25697 65.75 166.25 403 236.93469238281 486.85000610352 188154.91201782 89023813.951524
vector 51336  IntersectionExampleScenario.node[61].veinsmobility  posx  ETV
vector 51337  IntersectionExampleScenario.node[61].veinsmobility  posy  ETV
vector 51338  IntersectionExampleScenario.node[61].veinsmobility  speed  ETV
vector 51339  IntersectionExampleScenario.node[61].veinsmobility  acceleration  ETV
vector 51340  IntersectionExampleScenario.node[61].veinsmobility  co2emission  ETV
vector 51343  IntersectionExampleScenario.node[62].veinsmobility  posx  ETV
vector 51344  IntersectionExampleScenario.node[62].veinsmobility  posy  ETV
51207	1968157 6949 16728 25925 113.25 167.75 219 0.97223939240464 11.648172402475 595.89720749408 3054.9272130063
51206	1975106 7271 16728 25925 113.25 167.75 219 -3.7789459228516 2.5 38.680875778198 330.77359271086
51205	1982377 7456 16675 25925 113 167.75 220 1.5558463335037 15.64999961853 2211.1270142794 27760.24821621
51204	1989833 7689 16622 25925 112.75 167.75 221 184.17810058594 731.73612976074 95313.965499878 45382651.170612
51203	1997522 7736 16622 25925 112.75 167.75 221 486.85000610352 486.85000610352 107593.85134888 52382067.185901
vector 51345  IntersectionExampleScenario.node[62].veinsmobility  speed  ETV
vector 51346  IntersectionExampleScenario.node[62].veinsmobility  acceleration  ETV
vector 51347  IntersectionExampleScenario.node[62].veinsmobility  co2emission  ETV
vector 51350  IntersectionExampleScenario.node[63].veinsmobility  posx  ETV
vector 51351  IntersectionExampleScenario.node[63].veinsmobility  posy  ETV
vector 51352  IntersectionExampleScenario.node[63].veinsmobility  speed  ETV
vector 51353  IntersectionExampleScenario.node[63].veinsmobility  acceleration  ETV
vector 51354  IntersectionExampleScenario.node[63].veinsmobility  co2emission  ETV
vector 51357  IntersectionExampleScenario.node[64].veinsmobility  posx  ETV
vector 51358  IntersectionExampleScenario.node[64].veinsmobility  posy  ETV
51263	2006060 5232 21200 26828 135.5 173.5 153 0.973 11.648172402475 472.42577090034 2485.3819126412
51262	2011292 5038 21200 26828 135.5 173.5 153 -3.2845306396484 2.5 38.850629806519 192.35877735375
51261	2016330 5161 21155 26828 135.25 173.5 154 5.6500000953674 15.64999961853 2213.5804691315 32485.180072616
51260	2021491 5340 21109 26828 135 173.5 155 184.17810058594 732.38822937012 69445.630752563 35212171.431896
51259	2026831 5424 21109 26828 135 173.5 155 486.85000610352 486.85000610352 75461.750946045 36738553.908664
vector 51359  IntersectionExampleScenario.node[64].veinsmobility  speed  ETV
vector 51360  IntersectionExampleScenario.node[64].veinsmobility  acceleration  ETV
vector 51361  IntersectionExampleScenario.node[64].veinsmobility  co2emission  ETV
vector 51364  IntersectionExampleScenario.node[65].veinsmobility  posx  ETV
vector 51365  IntersectionExampleScenario.node[65].veinsmobility  posy  ETV
vector 51366  IntersectionExampleScenario.node[65].veinsmobility  speed  ETV
vector 51367  IntersectionExampleScenario.node[65].veinsmobility  acceleration  ETV
vector 51368  IntersectionExampleScenario.node[65].veinsmobility  co2emission  ETV
51277	2032903 5284 21849 27538 139.25 177.75 155 0.973 11.90022389248 500.15632620018 2778.9868925169
51276	2038187 4855 21849 27538 139.25 177.75 155 -3.5925788879395 2.5 39.699392318726 250.14584796603
51275	2043042 5166 21808 27538 139 177.75 156 5.6500000953674 16 2211.3224658966 32374.308685309
51274	2048208 5490 21765 27538 138.75 177.75 157 483.14999389648 785.82187652588 89800.838661194 53124394.923681
51273	2053698 5459 21765 27538 138.75 177.75 157 483.14999389648 733.79339599609 84130.041183472 46026738.564277
vector 51371  IntersectionExampleScenario.node[66].veinsmobility  posx  ETV
vector 51372  IntersectionExampleScenario.node[66].veinsmobility  posy  ETV
vector 51373  IntersectionExampleScenario.node[66].veinsmobility  speed  ETV
vector 51374  IntersectionExampleScenario.node[66].veinsmobility  acceleration  ETV
vector 51375  IntersectionExampleScenario.node[66].veinsmobility  co2emission  ETV
vector 51378  IntersectionExampleScenario.node[67].veinsmobility  posx  ETV
vector 51379  IntersectionExampleScenario.node[67].veinsmobility  posy  ETV
vector 51380  IntersectionExampleScenario.node[67].veinsmobility  speed  ETV
vector 51381  IntersectionExampleScenario.node[67].veinsmobility  acceleration  ETV
vector 51382  IntersectionExampleScenario.node[67].veinsmobility  co2emission  ETV
vector 51385  IntersectionExampleScenario.node[68].veinsmobility  posx  ETV
vector 51386  IntersectionExampleScenario.node[68].veinsmobility  posy  ETV
vector 51387  IntersectionExampleScenario.node[68].veinsmobility  speed  ETV
vector 51388  IntersectionExampleScenario.node[68].veinsmobility  acceleration  ETV
vector 51389  IntersectionExampleScenario.node[68].veinsmobility  co2emission  ETV
vector 51392  IntersectionExampleScenario.node[69].veinsmobility  posx  ETV
vector 51393  IntersectionExampleScenario.node[69].veinsmobility  posy  ETV
51291	2060514 5370 22763 28674 145.25 184.75 159 0.973 11.810082123732 508.49538687659 2854.0891032743
51290	2065884 5081 22763 28674 145.25 184.75 159 -3.5987949371338 2.5 38.511121749878 289.97426918725
51289	2070965 5271 22726 28674 145 184.75 160 5.6500000953674 15.875 2187.4260525703 31251.806350984
51288	2076236 5625 22689 28674 144.75 184.75 161 486.6611328125 785.82187652588 92175.98639679 54512584.595682
51287	2081861 5633 22689 28674 144.75 184.75 161 236.08911132812 483.14999389648 69584.890655518 31005018.71986
vector 51394  IntersectionExampleScenario.node[69].veinsmobility  speed  ETV
vector 51395  IntersectionExampleScenario.node[69].veinsmobility  acceleration  ETV
vector 51396  IntersectionExampleScenario.node[69].veinsmobility  co2emission  ETV
vector 51399  IntersectionExampleScenario.node[70].veinsmobility  posx  ETV
vector 51400  IntersectionExampleScenario.node[70].veinsmobility  posy  ETV
vector 51401  IntersectionExampleScenario.node[70].veinsmobility  speed  ETV
vector 51402  IntersectionExampleScenario.node[70].veinsmobility  acceleration  ETV
vector 51403  IntersectionExampleScenario.node[70].veinsmobility  co2emission  ETV
51298	2088142 5411 23366 29345 149.5 188.75 158 0.973 11.200708441096 463.17566965342 2273.2317424744
51297	2093553 4988 23366 29345 149.5 188.75 158 -3.2906913757324 2.5 36.813589096069 176.62959995031
51296	2098541 5352 23331 29345 149.25 188.75 159 5.6500000953674 15.220586776733 2229.8031206131 31828.807012631
51295	2103893 5592 23296 29345 149 188.75 160 237.73846435547 790.18281555176 83756.999099731 48139584.200201
51294	2109485 5600 23296 29345 149 188.75 160 483.14999389648 483.14999389648 77303.999023438 37349426.656348
vector 51406  IntersectionExampleScenario.node[71].veinsmobility  posx  ETV
vector 51407  IntersectionExampleScenario.node[71].veinsmobility  posy  ETV
vector 51408  IntersectionExampleScenario.node[71].veinsmobility  speed  ETV
vector 51409  IntersectionExampleScenario.node[71].veinsmobility  acceleration  ETV
vector 51410  IntersectionExampleScenario.node[71].veinsmobility  co2emission  ETV
vector 51413  IntersectionExampleScenario.node[72].veinsmobility  posx  ETV
vector 51414  IntersectionExampleScenario.node[72].veinsmobility  posy  ETV
vector 51415  IntersectionExampleScenario.node[72].veinsmobility  speed  ETV
vector 51416  IntersectionExampleScenario.node[72].veinsmobility  acceleration  ETV
vector 51417  IntersectionExampleScenario.node[72].veinsmobility  co2emission  ETV
vector 51420  IntersectionExampleScenario.node[73].veinsmobility  posx  ETV
vector 51421  IntersectionExampleScenario.node[73].veinsmobility  posy  ETV
vector 51422  IntersectionExampleScenario.node[73].veinsmobility  speed  ETV
51123	2116119 13054 8105 30015 75.75 192.5 468 0.973 11.450879080643 824.53142240935 3081.5688080658
51122	2129173 11404 8105 30015 75.75 192.5 468 -7.457010269165 4 37.32285118103 472.71634007258
51121	2140577 11833 8050 30015 75.5 192.5 469 0 15.375 2213.2772502899 30957.844004183
51120	2152410 16316 7995 30015 75.25 192.5 470 483.14999389648 483.14999389648 227080.49713135 109713940.80302
51119	2168726 16285 7995 30015 75.25 192.5 470 184.17810058594 733.81198120117 218064.08932495 105432916.82235
vector 51423  IntersectionExampleScenario.node[73].veinsmobility  acceleration  ETV
vector 51424  IntersectionExampleScenario.node[73].veinsmobility  co2emission  ETV
51165	2185180 11740 12893 30344 96.5 194.25 392 0.97223939240464 11.648172402475 754.39354364569 3034.5975899606
51164	2196920 11871 12893 30344 96.5 194.25 392 -3.8634688854218 2.5 38.680875778198 331.10942428646
51163	2208791 11832 12836 30344 96.25 194.25 393 0 15.64999961853 2219.8638441497 29726.395782018
51162	2220623 13773 12779 30344 96 194.25 394 483.14999389648 483.14999389648 190361.09759521 91972963.141257
51161	2234396 13737 12779 30344 96 194.25 394 184.17810058594 734.32884216309 180095.12307739 86506868.377069
vector 51427  IntersectionExampleScenario.node[74].veinsmobility  posx  ETV
vector 51428  IntersectionExampleScenario.node[74].veinsmobility  posy  ETV
vector 51429  IntersectionExampleScenario.node[74].veinsmobility  speed  ETV
vector 51430  IntersectionExampleScenario.node[74].veinsmobility  acceleration  ETV
vector 51431  IntersectionExampleScenario.node[74].veinsmobility  co2emission  ETV
51172	2248534 12343 13238 30950 98 197.5 399 0.973 11.200708441096 754.71440968302 2869.8077345046
51171	2260877 12538 13238 30950 98 197.5 399 -4.5 2.5000004768372 35.795072555542 381.82389137523
51170	2273415 12520 13179 30950 97.75 197.5 400 0 15.02499961853 2295.7630693037 28911.599446107
51169	2285935 14023 13121 30950 97.5 197.5 401 483.14999389648 735.08345031738 202633.99209595 103691767.5649
51168	2299958 13985 13121 30950 97.5 197.5 401 163.88433837891 486.85000610352 171226.7010498 75684313.275563
vector 51434  IntersectionExampleScenario.node[75].veinsmobility  posx  ETV
vector 51435  IntersectionExampleScenario.node[75].veinsmobility  posy  ETV
vector 51436  IntersectionExampleScenario.node[75].veinsmobility  speed  ETV
vector 51437  IntersectionExampleScenario.node[75].veinsmobility  acceleration  ETV
vector 51438  IntersectionExampleScenario.node[75].veinsmobility  co2emission  ETV
51235	2314344 9478 19137 31240 125 199 297 0.973 11.648172402475 659.80565504989 2900.2961194718
51234	2323822 9816 19137 31240 125 199 297 -3.8084208965302 2.5 38.511121749878 325.0240476534
51233	2333638 9844 19086 31240 124.75 199 298 0 15.64999961853 2206.3352185674 28869.154756854
51232	2343482 10449 19034 31240 124.5 199 299 483.14999389648 732.36212158203 152804.93588257 79242623.465004
51231	2353931 10410 19034 31240 124.5 199 299 184.17810058594 486.85000610352 125966.25262451 55045233.260234
vector 51441  IntersectionExampleScenario.node[76].veinsmobility  posx  ETV
vector 51442  IntersectionExampleScenario.node[76].veinsmobility  posy  ETV
vector 51443  IntersectionExampleScenario.node[76].veinsmobility  speed  ETV
vector 51444  IntersectionExampleScenario.node[76].veinsmobility  acceleration  ETV
vector 51445  IntersectionExampleScenario.node[76].veinsmobility  co2emission  ETV
51249	2364742 9411 20118 31746 129.75 201.5 288 0.973 11.648172402475 651.55194859653 2980.4262044748
51248	2374153 9790 20118 31746 129.75 201.5 288 -4.5 2.5 38.341367721558 374.85661122747
51247	2383943 9806 20067 31746 129.5 201.5 289 0 15.64999961853 2207.7366817454 28802.5649903
51246	2393749 10143 20015 31746 129.25 201.5 290 483.14999389648 732.84129333496 148504.54454041 77199404.08582
51245	2403892 10100 20015 31746 129.25 201.5 290 184.17810058594 486.85000610352 121049.62832642 52452288.973703
vector 51448  IntersectionExampleScenario.node[77].veinsmobility  posx  ETV
vector 51449  IntersectionExampleScenario.node[77].veinsmobility  posy  ETV
vector 51450  IntersectionExampleScenario.node[77].veinsmobility  speed  ETV
vector 51451  IntersectionExampleScenario.node[77].veinsmobility  acceleration  ETV
vector 51452  IntersectionExampleScenario.node[77].veinsmobility  co2emission  ETV
51347	2414393 5246 26006 32840 168.25 207 156 0.973 12.099024792222 518.61038416689 3066.4135623609
51346	2419639 5107 26006 32840 168.25 207 156 -3.6799354553223 2.5 40.038900375366 308.98611156535
51345	2424746 5166 25966 32840 168 207 157 5.6500000953674 16.27499961853 2179.1741514206 31755.485447472
51344	2429912 5524 25925 32840 167.75 207 158 238.03356933594 483.14999389648 68428.836730957 30526541.446936
51343	2435436 5505 25925 32840 167.75 207 158 184.17810058594 483.14999389648 62778.586212158 26660633.755374
vector 51455  IntersectionExampleScenario.node[78].veinsmobility  posx  ETV
vector 51456  IntersectionExampleScenario.node[78].veinsmobility  posy  ETV
vector 51457  IntersectionExampleScenario.node[78].veinsmobility  speed  ETV
vector 51458  IntersectionExampleScenario.node[78].veinsmobility  acceleration  ETV
vector 51459  IntersectionExampleScenario.node[78].veinsmobility  co2emission  ETV
51361	2441342 5253 26910 33832 174 212 153 0.97223939240464 11.648172402475 471.87961030059 2479.1069037821
51360	2446595 5080 26910 33832 174 212 153 -3.8878898620605 2.5 38.680875778198 201.33872209475
51359	2451675 5161 26869 33832 173.75 212 154 5.6500000953674 15.64999961853 2211.2589912415 32407.929112625
51358	2456836 5424 26828 33832 173.5 212 155 483.14999389648 483.14999389648 74888.249053955 36182257.073337
51357	2462260 5378 26828 33832 173.5 212 155 184.17810058594 731.82133483887 69412.009994507 35177435.639912
vector 51462  IntersectionExampleScenario.node[79].veinsmobility  posx  ETV
vector 51463  IntersectionExampleScenario.node[79].veinsmobility  posy  ETV
vector 51464  IntersectionExampleScenario.node[79].veinsmobility  speed  ETV
vector 51469  IntersectionExampleScenario.node[80].veinsmobility  posx  ETV
vector 51470  IntersectionExampleScenario.node[80].veinsmobility  posy  ETV
vector 51465  IntersectionExampleScenario.node[79].veinsmobility  acceleration  ETV
vector 51466  IntersectionExampleScenario.node[79].veinsmobility  co2emission  ETV
vector 51471  IntersectionExampleScenario.node[80].veinsmobility  speed  ETV
vector 51472  IntersectionExampleScenario.node[80].veinsmobility  acceleration  ETV
vector 51473  IntersectionExampleScenario.node[80].veinsmobility  co2emission  ETV
vector 51476  IntersectionExampleScenario.node[81].veinsmobility  posx  ETV
vector 51477  IntersectionExampleScenario.node[81].veinsmobility  posy  ETV
vector 51478  IntersectionExampleScenario.node[81].veinsmobility  speed  ETV
vector 51479  IntersectionExampleScenario.node[81].veinsmobility  acceleration  ETV
vector 51480  IntersectionExampleScenario.node[81].veinsmobility  co2emission  ETV
51375	2468841 5485 27859 35312 179.75 219.5 160 0.973 11.200708441096 456.11731217093 2194.9940300787
51374	2474326 4977 27859 35312 179.75 219.5 160 -3.3932037353516 2.5 35.625318527222 173.48998468565
51373	2479303 5415 27818 35312 179.5 219.5 161 5.6500000953674 15.02499961853 2224.3122186661 31231.818810776
51372	2484718 5671 27777 35312 179.25 219.5 162 483.14999389648 483.14999389648 78270.29901123 37816294.489552
51371	2490389 5641 27777 35312 179.25 219.5 162 184.17810058594 735.33645629883 72998.976745605 37217910.595336
vector 51483  IntersectionExampleScenario.node[82].veinsmobility  posx  ETV
vector 51484  IntersectionExampleScenario.node[82].veinsmobility  posy  ETV
vector 51485  IntersectionExampleScenario.node[82].veinsmobility  speed  ETV
vector 51490  IntersectionExampleScenario.node[83].veinsmobility  posx  ETV
vector 51491  IntersectionExampleScenario.node[83].veinsmobility  posy  ETV
vector 51486  IntersectionExampleScenario.node[82].veinsmobility  acceleration  ETV
vector 51487  IntersectionExampleScenario.node[82].veinsmobility  co2emission  ETV
vector 51497  IntersectionExampleScenario.node[84].veinsmobility  posx  ETV
vector 51498  IntersectionExampleScenario.node[84].veinsmobility  posy  ETV
vector 51492  IntersectionExampleScenario.node[83].veinsmobility  speed  ETV
vector 51493  IntersectionExampleScenario.node[83].veinsmobility  acceleration  ETV
vector 51494  IntersectionExampleScenario.node[83].veinsmobility  co2emission  ETV
vector 51499  IntersectionExampleScenario.node[84].veinsmobility  speed  ETV
vector 51500  IntersectionExampleScenario.node[84].veinsmobility  acceleration  ETV
vector 51501  IntersectionExampleScenario.node[84].veinsmobility  co2emission  ETV
51389	2497233 5204 28551 35776 184 221.75 152 0.96931768538171 11.200708441096 485.05124979981 2386.7489489011
51388	2502437 5162 28551 35776 184 221.75 152 -3.351245880127 2.5 40.717908859253 187.31984316968
51387	2507599 5138 28510 35776 183.75 221.75 153 5.6500000953674 15.894278526306 2243.0522222519 33632.354500052
51386	2512737 5391 28469 35776 183.5 221.75 154 483.14999389648 483.14999389648 74405.099060059 35948823.156735
51385	2518128 5367 28469 35776 183.5 221.75 154 179.81719970703 735.24838256836 68733.43196106 34860231.495484
51221	2523495 12568 17609 37085 117.5 228.25 444 0.973 11.648172402475 809.78691236005 3189.4364345119
51220	2536063 11105 17609 37085 117.5 228.25 444 -7.03919506073 4 38.341367721558 481.63103295482
51219	2547168 11439 17556 37085 117.25 228.25 445 0 15.64999961853 2212.4081838131 31409.619262413
51218	2558607 15609 17503 37085 117 228.25 446 486.85000610352 486.85000610352 217135.10272217 105712226.08558
51217	2574216 15594 17503 37085 117 228.25 446 236.58178710938 785.82187652588 225888.43914032 118603352.83994
vector 51504  IntersectionExampleScenario.node[85].veinsmobility  posx  ETV
vector 51505  IntersectionExampleScenario.node[85].veinsmobility  posy  ETV
vector 51506  IntersectionExampleScenario.node[85].veinsmobility  speed  ETV
vector 51507  IntersectionExampleScenario.node[85].veinsmobility  acceleration  ETV
vector 51508  IntersectionExampleScenario.node[85].veinsmobility  co2emission  ETV
51228	2590211 12967 18422 37554 121.5 230.75 438 0.973 10.916047529558 768.88264791549 2726.3110900489
51227	2603178 12435 18422 37554 121.5 230.75 438 -3.805451631546 2.5 34.606801986694 329.12169471598
51226	2615613 12484 18371 37554 121.25 230.75 439 0 14.625 2216.6690908493 28497.359039213
51225	2628097 15387 18320 37554 121 230.75 440 486.85000610352 735.21975708008 223043.74417114 114348210.41516
51224	2643484 15375 18320 37554 121 230.75 440 486.85000610352 792.02188110352 234326.57290649 127189838.68856
vector 51511  IntersectionExampleScenario.node[86].veinsmobility  posx  ETV
vector 51512  IntersectionExampleScenario.node[86].veinsmobility  posy  ETV
vector 51513  IntersectionExampleScenario.node[86].veinsmobility  speed  ETV
vector 51514  IntersectionExampleScenario.node[86].veinsmobility  acceleration  ETV
vector 51515  IntersectionExampleScenario.node[86].veinsmobility  co2emission  ETV
51242	2659260 12680 19702 37976 127.75 233 422 0.973 10.756497587458 761.85704830759 2723.4098706609
51241	2671940 12579 19702 37976 127.75 233 422 -3.8569359779358 2.5 35.795072555542 311.9496391938
51240	2684519 12611 19649 37976 127.5 233 423 0 14.666980743408 2192.287012184 27233.289677814
51239	2697130 14838 19596 37976 127.25 233 424 486.85000610352 735.26765441895 215089.01506042 110367104.24234
51238	2711968 14821 19596 37976 127.25 233 424 486.66003417969 785.82187652588 227833.99890137 124581602.55892
51256	2726789 12545 20839 38343 133.5 235 407 0.973 11.200708441096 762.23503987405 2899.4809138519
51255	2739334 12515 20839 38343 133.5 235 407 -4.5 2.5 38.171613693237 411.24195544385
51254	2751849 12425 20793 38343 133.25 235 408 0 15.251994132996 2179.6407450754 28598.015540178
51253	2764274 14308 20746 38343 133 235 409 486.85000610352 731.85418701172 207250.92060852 106180914.84422
51252	2778582 14288 20746 38343 133 235 409 486.85000610352 785.82187652588 221103.15799713 121562202.04654
51270	2792870 12654 21550 38864 137.5 238 403 0.973 11.478864884691 778.77802539103 3089.7742014004
51269	2805524 12667 21550 38864 137.5 238 403 -3.9711198806763 2.5 38.001859664917 407.67930972065
51268	2818191 12582 21506 38864 137.25 238 404 0 15.414063453674 2206.6603639061 29080.986870351
51267	2830773 14169 21461 38864 137 238 405 486.85000610352 732.61848449707 205373.24510193 105316386.37317
51266	2844942 14063 21461 38864 137 238 405 486.85000610352 792.02188110352 221018.19674683 122714021.66206
51284	2859005 12289 22357 38993 142.5 238.75 386 0.973 11.990504229548 783.612885784 3425.4708194065
51283	2871294 12572 22357 38993 142.5 238.75 386 -4.9493255615234 2.5 39.699392318726 451.20725727328
51282	2883866 12414 22319 38993 142.25 238.75 387 0 16.125 2225.2163808569 30556.632533769
51281	2896280 13580 22280 38993 142 238.75 388 486.85000610352 486.85000610352 188897.80236816 91964896.235882
51280	2909860 13550 22280 38993 142 238.75 388 235.37518310547 785.82187652588 204841.19176483 112270199.24492
vector 51518  IntersectionExampleScenario.node[87].veinsmobility  posx  ETV
vector 51519  IntersectionExampleScenario.node[87].veinsmobility  posy  ETV
vector 51520  IntersectionExampleScenario.node[87].veinsmobility  speed  ETV
vector 51521  IntersectionExampleScenario.node[87].veinsmobility  acceleration  ETV
vector 51522  IntersectionExampleScenario.node[87].veinsmobility  co2emission  ETV
vector 51525  IntersectionExampleScenario.node[88].veinsmobility  posx  ETV
vector 51526  IntersectionExampleScenario.node[88].veinsmobility  posy  ETV
vector 51532  IntersectionExampleScenario.node[89].veinsmobility  posx  ETV
vector 51533  IntersectionExampleScenario.node[89].veinsmobility  posy  ETV
vector 51527  IntersectionExampleScenario.node[88].veinsmobility  speed  ETV
51326	2924197 9452 24988 39431 161.25 241.25 321 0.973 12.099024792222 716.41229073657 3546.1753835634
51325	2933649 9463 24988 39431 161.25 241.25 321 -3.6419100761414 2.5 40.038900375366 437.75130652882
51324	2943112 9521 24951 39431 161 241.25 322 0 16.27499961853 2211.3603644967 29107.885464153
51323	2952633 11299 24914 39431 160.75 241.25 323 236.23059082031 486.85000610352 149022.05502319 69917732.753291
51322	2963932 11281 24914 39431 160.75 241.25 323 483.12945556641 785.82187652588 179758.67093658 101887761.68409
vector 51528  IntersectionExampleScenario.node[88].veinsmobility  acceleration  ETV
vector 51529  IntersectionExampleScenario.node[88].veinsmobility  co2emission  ETV
vector 51534  IntersectionExampleScenario.node[89].veinsmobility  speed  ETV
vector 51535  IntersectionExampleScenario.node[89].veinsmobility  acceleration  ETV
vector 51536  IntersectionExampleScenario.node[89].veinsmobility  co2emission  ETV
51354	2975629 8658 26711 39948 172.75 244 286 0.973 11.450879080643 647.12556679314 2974.8280638637
51353	2984287 8414 26711 39948 172.75 244 286 -4.1732726097107 4 37.32285118103 377.33665381963
51352	2992701 8666 26671 39948 172.5 244 287 0 15.375 2205.2035411596 27935.060514915
51351	3001367 10048 26630 39948 172.25 244 288 236.99444580078 486.85000610352 131681.42037964 61376401.961231
51350	3011415 9347 26630 39948 172.25 244 288 483.14999389648 785.82187652588 161874.00844574 92835325.74793
51382	3020762 8203 28105 40183 181.25 245.25 257 0.96333723109819 12.099024792222 631.61230380978 3160.9354098341
51381	3028965 8950 28105 40183 181.25 245.25 257 -3.826408624649 2.5 40.73353767395 336.89891700588
51380	3037915 8780 28064 40183 181 245.25 258 0 16.27499961853 2207.3626360577 28816.512250836
51379	3046695 9060 28023 40183 180.75 245.25 259 236.66900634766 486.85000610352 117898.7956543 54773099.73972
51378	3055755 9026 28023 40183 180.75 245.25 259 483.1203918457 785.82187652588 146590.90917206 84759772.606573
51403	3064781 7485 29216 40606 188 247.5 239 0.973 11.810082123732 649.84732316432 3389.803151366
51402	3072266 7638 29216 40606 188 247.5 239 -4.3216857910156 2.5 40.887662887573 443.58402426281
51401	3079904 8037 29173 40606 187.75 247.5 240 0 15.875 2185.0732622482 27099.295492582
51400	3087941 8431 29130 40606 187.5 247.5 241 486.85000610352 733.82304382324 125257.25737 66139065.13796
51399	3096372 8414 29130 40606 187.5 247.5 241 486.85000610352 785.82187652588 138127.49115753 80948420.582581
vector 51539  IntersectionExampleScenario.node[90].veinsmobility  posx  ETV
vector 51540  IntersectionExampleScenario.node[90].veinsmobility  posy  ETV
vector 51541  IntersectionExampleScenario.node[90].veinsmobility  speed  ETV
vector 51542  IntersectionExampleScenario.node[90].veinsmobility  acceleration  ETV
vector 51543  IntersectionExampleScenario.node[90].veinsmobility  co2emission  ETV
51431	3105187 6728 30950 41272 197.5 251 215 0.973 11.36141391502 582.89294118907 2989.8993388119
51430	3111915 6978 30950 41272 197.5 251 215 -3.412841796875 2.5000009536743 35.964826583862 361.86681763307
51429	3118893 7222 30903 41272 197.25 251 216 2.9276401996613 15.25 2187.3412103653 25795.634674378
51428	3126115 7571 30856 41272 197 251 217 486.85000610352 734.31788635254 114223.13850403 61197180.171636
51427	3133686 7576 30856 41272 197 251 217 486.78427124023 785.82187652588 124685.79192352 73480963.305673
vector 51546  IntersectionExampleScenario.node[91].veinsmobility  posx  ETV
vector 51547  IntersectionExampleScenario.node[91].veinsmobility  posy  ETV
vector 51548  IntersectionExampleScenario.node[91].veinsmobility  speed  ETV
vector 51549  IntersectionExampleScenario.node[91].veinsmobility  acceleration  ETV
vector 51550  IntersectionExampleScenario.node[91].veinsmobility  co2emission  ETV
51452	3141663 5850 32643 41469 206 252 185 0.973 11.911929932668 569.76234342389 3313.0794710557
51451	3147513 6152 32643 41469 206 252 185 -2.7858238220215 2.5 41.464956283569 328.29544910767
51450	3153665 6198 32592 41469 205.75 252 186 5.6500000953674 16.01623916626 2179.9559726715 27558.128545436
51449	3159863 6535 32541 41469 205.5 252 187 486.85000610352 732.0037689209 99111.868438721 53507519.308338
51448	3166398 6526 32541 41469 205.5 252 187 486.85000610352 785.82187652588 107759.49202728 63887312.375621
vector 51553  IntersectionExampleScenario.node[92].veinsmobility  posx  ETV
vector 51554  IntersectionExampleScenario.node[92].veinsmobility  posy  ETV
vector 51555  IntersectionExampleScenario.node[92].veinsmobility  speed  ETV
vector 51556  IntersectionExampleScenario.node[92].veinsmobility  acceleration  ETV
vector 51557  IntersectionExampleScenario.node[92].veinsmobility  co2emission  ETV
vector 51560  IntersectionExampleScenario.node[93].veinsmobility  posx  ETV
vector 51561  IntersectionExampleScenario.node[93].veinsmobility  posy  ETV
vector 51562  IntersectionExampleScenario.node[93].veinsmobility  speed  ETV
vector 51563  IntersectionExampleScenario.node[93].veinsmobility  acceleration  ETV
vector 51564  IntersectionExampleScenario.node[93].veinsmobility  co2emission  ETV
51480	3173726 5608 34760 42651 216.75 258.5 168 0.973 11.01109381044 494.92056948214 2601.1845361203
51479	3179334 5500 34760 42651 216.75 258.5 168 -3.4556865692139 2.5 34.606801986694 271.04008126238
51478	3184834 5614 34709 42651 216.5 258.5 169 5.6500000953674 14.758762359619 2190.8649954796 29417.186389583
51477	3190448 5941 34658 42651 216.25 258.5 170 486.85000610352 735.15765380859 91589.647232056 50346449.863177
51476	3196389 5938 34658 42651 216.25 258.5 170 486.85000610352 785.82187652588 97221.632736206 57405097.517156
vector 51567  IntersectionExampleScenario.node[94].veinsmobility  posx  ETV
vector 51568  IntersectionExampleScenario.node[94].veinsmobility  posy  ETV
vector 51569  IntersectionExampleScenario.node[94].veinsmobility  speed  ETV
vector 51570  IntersectionExampleScenario.node[94].veinsmobility  acceleration  ETV
vector 51571  IntersectionExampleScenario.node[94].veinsmobility  co2emission  ETV
vector 51574  IntersectionExampleScenario.node[95].veinsmobility  posx  ETV
vector 51575  IntersectionExampleScenario.node[95].veinsmobility  posy  ETV
vector 51576  IntersectionExampleScenario.node[95].veinsmobility  speed  ETV
vector 51577  IntersectionExampleScenario.node[95].veinsmobility  acceleration  ETV
vector 51578  IntersectionExampleScenario.node[95].veinsmobility  co2emission  ETV
vector 51581  IntersectionExampleScenario.node[96].veinsmobility  posx  ETV
vector 51582  IntersectionExampleScenario.node[96].veinsmobility  posy  ETV
vector 51583  IntersectionExampleScenario.node[96].veinsmobility  speed  ETV
vector 51584  IntersectionExampleScenario.node[96].veinsmobility  acceleration  ETV
vector 51585  IntersectionExampleScenario.node[96].veinsmobility  co2emission  ETV
vector 51588  IntersectionExampleScenario.node[97].veinsmobility  posx  ETV
vector 51589  IntersectionExampleScenario.node[97].veinsmobility  posy  ETV
vector 51590  IntersectionExampleScenario.node[97].veinsmobility  speed  ETV
vector 51591  IntersectionExampleScenario.node[97].veinsmobility  acceleration  ETV
vector 51592  IntersectionExampleScenario.node[97].veinsmobility  co2emission  ETV
51508	3203931 4963 37413 43830 230 266.25 146 0.973 12.553400930962 501.63273371328 3048.7454798716
51507	3208894 4692 37413 43830 230 266.25 146 -3.1422576904297 2.5 42.924703598022 227.37156604123
51506	3213586 4896 37366 43830 229.75 266.25 147 5.6500000953674 16.89999961853 2216.4958572388 34336.094910211
51505	3218482 5180 37319 43830 229.5 266.25 148 486.85000610352 486.85000610352 72053.80090332 35079393.409563
51504	3223662 5170 37319 43830 229.5 266.25 148 237.15704345703 785.82187652588 77430.794425964 44434704.430602
vector 51595  IntersectionExampleScenario.node[98].veinsmobility  posx  ETV
vector 51596  IntersectionExampleScenario.node[98].veinsmobility  posy  ETV
vector 51597  IntersectionExampleScenario.node[98].veinsmobility  speed  ETV
vector 51598  IntersectionExampleScenario.node[98].veinsmobility  acceleration  ETV
vector 51599  IntersectionExampleScenario.node[98].veinsmobility  co2emission  ETV
vector 51602  IntersectionExampleScenario.node[99].veinsmobility  posx  ETV
vector 51603  IntersectionExampleScenario.node[99].veinsmobility  posy  ETV
vector 51604  IntersectionExampleScenario.node[99].veinsmobility  speed  ETV
vector 51605  IntersectionExampleScenario.node[99].veinsmobility  acceleration  ETV
vector 51606  IntersectionExampleScenario.node[99].veinsmobility  co2emission  ETV
vector 51609  IntersectionExampleScenario.node[100].veinsmobility  posx  ETV
vector 51610  IntersectionExampleScenario.node[100].veinsmobility  posy  ETV
vector 51611  IntersectionExampleScenario.node[100].veinsmobility  speed  ETV
vector 51612  IntersectionExampleScenario.node[100].veinsmobility  acceleration  ETV
vector 51613  IntersectionExampleScenario.node[100].veinsmobility  co2emission  ETV
51305	3230040 13238 23803 44394 152.75 270 470 0.973 11.90022389248 853.82924672036 3386.1745365401
51304	3243278 11362 23803 44394 152.75 270 470 -43.740642547607 4 39.869146347046 2240.3928115886
51303	3254640 11842 23770 44394 152.5 270 471 0 16 2222.4917821884 32796.867950158
51302	3266482 16494 23737 44394 152.25 270 472 184.17810058594 735.07762145996 219111.03405762 105878839.58248
51301	3282976 16520 23737 44394 152.25 270 472 486.85000610352 486.85000610352 229793.20288086 111874822.22509
51319	3299496 12778 24419 44431 157.25 270.25 453 0.973 11.648172402475 813.98651423768 3181.3678009315
51318	3312274 11446 24419 44431 157.25 270.25 453 -6.7527532577515 4 37.832105636597 467.49807762372
51317	3323720 11636 24382 44431 157 270.25 454 0 15.64999961853 2206.0872974396 31067.27251008
51316	3335356 15909 24345 44431 156.75 270.25 455 238.25756835938 785.82187652588 230483.60079193 120939736.37939
51315	3351265 15925 24345 44431 156.75 270.25 455 483.14999389648 483.14999389648 219833.2472229 106212432.05399
vector 51616  IntersectionExampleScenario.node[101].veinsmobility  posx  ETV
vector 51617  IntersectionExampleScenario.node[101].veinsmobility  posy  ETV
vector 51618  IntersectionExampleScenario.node[101].veinsmobility  speed  ETV
vector 51619  IntersectionExampleScenario.node[101].veinsmobility  acceleration  ETV
vector 51620  IntersectionExampleScenario.node[101].veinsmobility  co2emission  ETV
vector 51623  IntersectionExampleScenario.node[102].veinsmobility  posx  ETV
vector 51624  IntersectionExampleScenario.node[102].veinsmobility  posy  ETV
51312	3367752 13587 24170 44624 155.5 271.5 465 0.973 11.810082123732 841.8412376125 3304.4478044032
51311	3381339 12900 24170 44624 155.5 271.5 465 -4.5 2.5 39.020376205444 418.30161749592
51310	3394239 12861 24135 44624 155.25 271.5 466 0 15.875 2236.8295358215 30865.391319652
51309	3407100 16313 24100 44624 155 271.5 467 169.95465087891 483.14999389648 204965.53695679 92473009.843345
51308	3423413 16333 24100 44624 155 271.5 467 486.85000610352 731.8957824707 235372.32757568 119797597.0858
vector 51625  IntersectionExampleScenario.node[102].veinsmobility  speed  ETV
vector 51626  IntersectionExampleScenario.node[102].veinsmobility  acceleration  ETV
vector 51627  IntersectionExampleScenario.node[102].veinsmobility  co2emission  ETV
[...]
55727	34602124 7894 326503 336840 1725.25 1780.5 222 0 16.27499961853 2186.371648185 29133.980231584
55726	34610018 8231 326446 336840 1725 1780.5 223 486.85000610352 785.82187652588 125685.30323029 72602720.00723
55725	34618249 8248 326446 336840 1725 1780.5 223 236.83306884766 483.14999389648 100012.05456543 45848293.825449
vector 55867  IntersectionExampleScenario.node[708].veinsmobility  speed  ETV
vector 55872  IntersectionExampleScenario.node[709].veinsmobility  posx  ETV
vector 55873  IntersectionExampleScenario.node[709].veinsmobility  posy  ETV
vector 55868  IntersectionExampleScenario.node[708].veinsmobility  acceleration  ETV
vector 55869  IntersectionExampleScenario.node[708].veinsmobility  co2emission  ETV
vector 55874  IntersectionExampleScenario.node[709].veinsmobility  speed  ETV
vector 55875  IntersectionExampleScenario.node[709].veinsmobility  acceleration  ETV
vector 55876  IntersectionExampleScenario.node[709].veinsmobility  co2emission  ETV
55610	34627153 12404 317485 337116 1684 1782.25 394 0.973 11.810082123732 796.439087451 3591.298691143
55609	34639557 12205 317485 337116 1684 1782.25 394 -3.9425721168518 2.5 39.699392318726 552.70741509593
55608	34651762 12089 317432 337116 1683.75 1782.25 395 0 15.875 2193.6410984099 28887.649253033
55607	34663851 14618 317379 337116 1683.5 1782.25 396 184.17810058594 483.28405761719 165100.64276123 70683658.870198
55606	34678469 14640 317379 337116 1683.5 1782.25 396 486.84991455078 735.12312316895 200943.72137451 103140996.94905
55736	34693109 7607 327005 337272 1727.5 1783.25 224 0.973 11.810082123732 607.59032029905 3140.5076611701
55735	34700716 7622 327005 337272 1727.5 1783.25 224 -4.5 2.5000019073486 39.869146347046 473.28907357596
55734	34708338 7758 326948 337272 1727.25 1783.25 225 0 15.875 2249.7615099251 29819.431621702
55733	34716096 8342 326891 337272 1727 1783.25 226 486.85000610352 803.92188262939 128809.72185516 75488145.491971
55732	34724438 8358 326891 337272 1727 1783.25 226 238.71545410156 483.14999389648 101307.92141724 46416759.715438
55631	34732796 12245 318219 337467 1687.5 1784.5 389 0.973 11.200708441096 760.07123125566 3080.9998137594
55630	34745041 11544 318219 337467 1687.5 1784.5 389 -4.5 2.5 36.643835067749 466.27227338772
55629	34756585 11865 318164 337467 1687.25 1784.5 390 0 15.02499961853 2261.9728512075 29962.045794943
55628	34768450 14429 318109 337467 1687 1784.5 391 174.53436279297 735.48280334473 169270.10714722 77827471.805086
55627	34782879 14466 318109 337467 1687 1784.5 391 486.85000610352 486.85003662109 190358.35241699 92675965.050926
vector 55879  IntersectionExampleScenario.node[710].veinsmobility  posx  ETV
vector 55880  IntersectionExampleScenario.node[710].veinsmobility  posy  ETV
vector 55881  IntersectionExampleScenario.node[710].veinsmobility  speed  ETV
vector 55882  IntersectionExampleScenario.node[710].veinsmobility  acceleration  ETV
vector 55883  IntersectionExampleScenario.node[710].veinsmobility  co2emission  ETV
55638	34797751 11953 319574 337744 1694 1786.25 370 0.973 11.200708441096 721.09376889839 2813.3316736035
55637	34809704 12017 319574 337744 1694 1786.25 370 -1.6971435546875 2.5 37.15309715271 287.45059356634
55636	34821721 12300 319523 337744 1693.75 1786.25 371 0 15.02499961853 2212.1099804553 28519.121790153
55635	34834021 13709 319472 337744 1693.5 1786.25 372 184.17810058594 732.45196533203 160047.09249878 73156657.420055
55634	34847730 13764 319472 337744 1693.5 1786.25 372 486.85000610352 486.85000610352 181108.20227051 88172529.380794
55750	34861494 6848 329113 337908 1737.75 1787.25 199 0.973 10.916047529558 551.55968326224 2698.0364078715
55749	34868342 6860 329113 337908 1737.75 1787.25 199 -4.5 2.5 34.267293930054 369.76318857197
55748	34875202 7098 329062 337908 1737.5 1787.25 200 2.6978206634521 14.625 2186.5904958248 26755.720828434
55747	34882300 7430 329011 337908 1737.25 1787.25 201 486.85000610352 785.82187652588 114418.47857666 66962120.376497
55746	34889730 7433 329011 337908 1737.25 1787.25 201 235.85363769531 483.14999389648 88309.633178711 39863588.39957
55757	34897163 6392 330099 338113 1742.75 1788.5 184 0.973 11.00486315618 526.0753084052 2606.3043864752
55756	34903555 6367 330099 338113 1742.75 1788.5 184 -4.5 2.5 35.625318527222 290.85066326322
55755	34909922 6561 330048 338113 1742.5 1788.5 185 4.1374669075012 14.75 2207.6845026016 28242.254682244
55754	34916483 6872 329997 338113 1742.25 1788.5 186 483.13110351562 785.82187652588 105921.59601593 62156648.750918
55753	34923355 6877 329997 338113 1742.25 1788.5 186 483.14999389648 733.75520324707 98686.069091797 53415917.980287
vector 55886  IntersectionExampleScenario.node[711].veinsmobility  posx  ETV
vector 55887  IntersectionExampleScenario.node[711].veinsmobility  posy  ETV
55680	34930388 11304 322165 338318 1706.5 1789.75 334 0.973 11.648172402475 754.7801935785 3405.6771100572
55679	34941692 11947 322165 338318 1706.5 1789.75 334 -4.5 2.5 41.396924972534 430.33092877031
55678	34953639 11921 322108 338318 1706.25 1789.75 335 0 16.057571411133 2271.1707261447 29252.691394647
55677	34965560 12378 322051 338318 1706 1789.75 336 168.58435058594 731.54270935059 140464.47021484 63214719.47169
55676	34977938 12432 322051 338318 1706 1789.75 336 486.85000610352 486.85000610352 163581.60205078 79639703.956846
55666	34990370 11227 321613 338318 1704 1789.75 344 0.973 11.856985081068 785.59089649044 3712.0240402666
55665	35001597 11767 321613 338318 1704 1789.75 344 -4.5 2.5 40.795038223267 498.12768832376
55664	35013364 11750 321560 338318 1703.75 1789.75 345 0 15.940064430237 2179.393240476 27026.093965409
55663	35025114 12757 321507 338318 1703.5 1789.75 346 184.17810058594 483.36819458008 139740.53549194 58229070.104665
55662	35037871 12800 321507 338318 1703.5 1789.75 346 486.85000610352 733.45974731445 176829.11601257 91547054.299258
vector 55888  IntersectionExampleScenario.node[711].veinsmobility  speed  ETV
vector 55889  IntersectionExampleScenario.node[711].veinsmobility  acceleration  ETV
vector 55890  IntersectionExampleScenario.node[711].veinsmobility  co2emission  ETV
vector 55893  IntersectionExampleScenario.node[712].veinsmobility  posx  ETV
vector 55894  IntersectionExampleScenario.node[712].veinsmobility  posy  ETV
55687	35051077 11555 323178 339048 1711 1794 333 0.973 11.36141391502 729.21569671127 3233.5044958562
55686	35062632 11956 323178 339048 1711 1794 333 -4.5 2.5 36.98334312439 510.94330275618
55685	35074588 11971 323119 339048 1710.75 1794 334 0 15.25 2224.8585439743 26943.613811329
55684	35086559 12337 323062 339048 1710.5 1794 335 173.9375 483.26019287109 132201.30273438 54131299.503156
55683	35098896 12386 323062 339048 1710.5 1794 335 486.85000610352 733.2957611084 171466.78286743 88926394.209573
vector 55895  IntersectionExampleScenario.node[712].veinsmobility  speed  ETV
vector 55896  IntersectionExampleScenario.node[712].veinsmobility  acceleration  ETV
vector 55897  IntersectionExampleScenario.node[712].veinsmobility  co2emission  ETV
55722	35111532 10953 324964 339459 1718.5 1796.5 313 0.973 11.36141391502 705.31614634937 3090.7440575858
55721	35122485 11118 324964 339459 1718.5 1796.5 313 -4.5 2.5 36.98334312439 460.39641906865
55720	35133603 11252 324905 339459 1718.25 1796.5 314 0 15.25 2181.0963271949 26559.471805636
55719	35144855 11601 324845 339459 1718 1796.5 315 184.17810058594 483.16857910156 124291.74389648 50849746.932473
55718	35156456 11639 324845 339459 1718 1796.5 315 486.85000610352 732.92967224121 161703.25137329 84153987.286223
55743	35168095 8468 328766 339696 1736 1798 249 0.973 11.200708441096 615.12777641752 2861.8214773529
55742	35176563 8689 328766 339696 1736 1798 249 -4.5 2.5 35.964826583862 335.28765361743
55741	35185252 9029 328717 339696 1735.75 1798 250 0 15.02499961853 2222.9787384234 26694.79295308
55740	35194281 9230 328668 339696 1735.5 1798 251 184.17810058594 734.95674133301 107008.91384888 50229582.129668
55739	35203511 9286 328668 339696 1735.5 1798 251 486.85000610352 486.85003662109 122199.35159302 59492755.098621
55694	35212797 10423 323237 340009 1711.25 1800 356 0.973 11.200708441096 555.2668161131 1781.3414041001
55693	35223220 9173 323237 340009 1711.25 1800 356 -8.4870233535767 4 8.8999996185303 406.38816667178
55692	35232393 9478 323178 340009 1711 1800 357 0 15.02499961853 1199.5178630352 16092.102729347
55691	35241871 13245 323119 340009 1710.75 1800 358 483.14999389648 483.14999389648 172967.69781494 83569342.143578
55690	35255116 13226 323119 340009 1710.75 1800 358 184.17810058594 482.77188110352 155875.41525269 70049324.553368
55701	35268342 10339 323417 340009 1712 1800 353 0.973 11.200708441096 554.31323117746 1753.5655539813
55700	35278681 9208 323417 340009 1712 1800 353 -4.5 2.5 -2.7990970611572 361.59177080385
55699	35287889 9521 323356 340009 1711.75 1800 354 0 16.066526412964 1242.1539506912 17671.14290018
55698	35297410 13134 323296 340009 1711.5 1800 355 483.14999389648 483.14999389648 171518.24783325 82869040.393772
55697	35310544 12863 323296 340009 1711.5 1800 355 161.1796875 470.17074584961 151417.54495239 67072558.938331
55764	35323407 6097 331584 340009 1750 1800 201 0.973 11.648172402475 372.78486122345 1545.8134655017
55763	35329504 5706 331584 340009 1750 1800 201 -7.7750473022461 2.5 -22.60000038147 320.25519313237
55762	35335210 5859 331529 340009 1749.75 1800 202 0 15.64999961853 1146.6267495155 16088.567755537
55761	35341069 7510 331476 340009 1749.5 1800 203 486.85000610352 486.85000610352 98830.551239014 48115654.473927
55760	35348579 7499 331476 340009 1749.5 1800 203 498.39999389648 785.82187652588 113991.84140778 65817028.069924
55771	35356078 6609 331639 340009 1750.25 1800 200 0.973 11.200708441096 360.36509937281 1396.7032217425
55770	35362687 7385 331639 340009 1750.25 1800 200 -3.7472977638245 2.5 -16.437982559204 192.07180783299
55769	35370072 7232 331584 340009 1750 1800 201 0 15.02499961853 1105.3813778339 13529.383910555
55768	35377304 7473 331529 340009 1749.75 1800 202 483.14999389648 483.14999389648 97596.29876709 47153651.153639
55767	35384777 7439 331529 340009 1749.75 1800 202 184.17810058594 460.15438842773 80204.972259521 33424350.910674
55778	35392216 6317 332358 340009 1753.5 1800 187 0.973 10.063615059983 351.03520571241 1305.6904692611
55777	35398533 6993 332358 340009 1753.5 1800 187 -4.5 2.5 -22.01645898819 245.68352598626
55776	35405526 6936 332301 340009 1753.25 1800 188 0 15.219488143921 1088.2244659439 12180.723131118
55775	35412462 6991 332244 340009 1753 1800 189 483.14999389648 483.14999389648 91315.348846436 44119010.237811
55774	35419453 6954 332244 340009 1753 1800 189 172.9296875 445.69177246094 70137.728027344 27545460.618841
55785	35426407 6098 332635 340009 1754.75 1800 182 0.973 11.200708441096 343.56290614041 1389.5208632702
55784	35432505 6775 332635 340009 1754.75 1800 182 -4.5 2.5 -22.60000038147 277.04194265948
55783	35439280 6715 332580 340009 1754.5 1800 183 0 15.238368034363 980.39912510104 11472.540103617
55782	35445995 6808 332524 340009 1754.25 1800 184 483.14999389648 483.14999389648 88899.598876953 42951840.6548
55781	35452803 6783 332524 340009 1754.25 1800 184 207.28045654297 453.01708984375 72677.630371094 29814926.487349
55792	35459586 5832 332960 340009 1756.25 1800 176 0.973 11.648172402475 342.06788389875 1502.6936519849
55791	35465418 6542 332960 340009 1756.25 1800 176 -3.732693195343 2.5 -22.60000038147 204.37972210808
55790	35471960 6392 332905 340009 1756 1800 177 0 15.722978591919 1123.0505613154 14753.970869138
55789	35478352 6585 332850 340009 1755.75 1800 178 486.85000610352 486.85000610352 86659.301086426 42190081.262853
55788	35484937 6551 332850 340009 1755.75 1800 178 504.79998779297 785.82187652588 102415.54282379 60484066.364825
55799	35491488 4566 334442 340009 1764.25 1800 144 0.973 12.099024792222 291.33864402385 1518.217466101
55798	35496054 5268 334442 340009 1764.25 1800 144 -3.9918942451477 2.5 -22.465773612261 191.17372931614
55797	35501322 5323 334401 340009 1764 1800 145 0 16.27499961853 1014.5568068065 11785.311475757
55796	35506645 5401 334360 340009 1763.75 1800 146 483.14999389648 483.14999389648 70539.899108887 34081351.823917
55795	35512046 5371 334360 340009 1763.75 1800 146 184.17810058594 438.07235717773 52795.994049072 20121798.961783
55806	35517417 4348 334795 340009 1766.5 1800 135 0.973 11.648172402475 290.99295240986 1424.0096644914
55805	35521765 5000 334795 340009 1766.5 1800 135 -3.779956817627 2.5 -21.814568221569 187.89211120926
55804	35526765 4999 334756 340009 1766.25 1800 136 0 15.64999961853 1094.4790951312 13538.308171407
55803	35531764 5067 334717 340009 1766 1800 137 486.85000610352 486.85000610352 66698.450836182 32472141.19669
55802	35536831 5045 334717 340009 1766 1800 137 512.06640625 785.82187652588 82520.067604065 50896439.357182
55813	35541876 4243 335367 340009 1770.5 1800 119 0.973 11.36141391502 406.39222055451 2424.0461866869
55812	35546119 4153 335367 340009 1770.5 1800 119 -3.3137741088867 2.5 37.205751419067 267.84633733322
55811	35550272 4121 335334 340009 1770.25 1800 120 5.6500000953674 15.25 1543.9319419861 20981.873274944
55810	35554393 4453 335300 340009 1770 1800 121 184.17810058594 483.19158935547 44462.269958496 17676267.23035
55809	35558846 4474 335300 340009 1770 1800 121 486.85000610352 573.30249023438 60049.328979492 29853396.304814
55820	35563320 3621 335437 340009 1771 1800 117 0.973 11.200708441096 259.20117661767 1293.8824660917
55819	35566941 3881 335437 340009 1771 1800 117 -4.5 2.5 -21.092810034752 215.41554086029
55818	35570822 4039 335402 340009 1770.75 1800 118 0 15.557523727417 983.99159708619 12020.142575861
55817	35574861 4402 335367 340009 1770.5 1800 119 483.14999389648 483.14999389648 57494.849273682 27778636.075658
55816	35579263 4373 335367 340009 1770.5 1800 119 184.17810058594 430.01348876953 41003.034637451 14989370.173942
55827	35583636 3619 335580 340009 1772 1800 113 0.973 11.200708441096 255.94943725915 1260.4506019104
55826	35587255 4175 335580 340009 1772 1800 113 -3.9893851280212 2.5 -21.716607451439 200.80013309562
55825	35591430 4195 335543 340009 1771.75 1800 114 0 15.02499961853 1061.0789165497 12958.060316659
55824	35595625 4254 335507 340009 1771.5 1800 115 486.85000610352 486.85000610352 55987.750701904 27257636.770944
55823	35599879 4237 335507 340009 1771.5 1800 115 520.16250610352 785.82187652588 71595.724555969 45516294.700627
55834	35604116 3961 335617 340009 1772.25 1800 112 0.973 12.717865293408 457.85803021908 3273.4448139446
55833	35608077 3589 335617 340009 1772.25 1800 112 -3.4150161743164 2.5 44.498601913452 328.47436791737
55832	35611666 3825 335580 340009 1772 1800 113 5.6500000953674 17.125 1546.3628768921 22805.75129023
55831	35615491 4205 335543 340009 1771.75 1800 114 486.85000610352 785.82187652588 68602.005027771 42578257.347997
55830	35619696 4215 335543 340009 1771.75 1800 114 396.5146484375 483.14999389648 54004.835906982 25631913.419428
55841	35623911 3850 335766 340009 1773.25 1800 108 0.973 11.54047740176 364.01801416066 2156.5149209615
55840	35627761 3541 335766 340009 1773.25 1800 108 -3.0075607299805 2.5 37.705823898315 181.93409583441
55839	35631302 3797 335729 340009 1773 1800 109 5.6500000953674 15.5 1494.1703052521 21003.328523867
55838	35635099 4050 335691 340009 1772.75 1800 110 169.95465087891 538.41656494141 38395.990325928 14814047.553054
55837	35639149 4069 335691 340009 1772.75 1800 110 486.85000610352 486.85000610352 53553.500671387 26072522.128729
55848	35643218 3432 335918 340009 1774.25 1800 104 0.973 11.200708441096 258.32818299474 1288.7225022236
55847	35646650 3687 335918 340009 1774.25 1800 104 -3.9479465484619 2.5 -12.633842468262 201.25236995262
55846	35650337 3864 335879 340009 1774 1800 105 2.491539478302 15.02499961853 1077.9983918667 13592.87281991
55845	35654201 3921 335840 340009 1773.75 1800 106 486.85000610352 486.85000610352 51606.100646973 25124430.414957
55844	35658122 3909 335840 340009 1773.75 1800 106 533.72198486328 802.70781707764 68458.088294983 45086384.625329
55855	35662031 3089 336543 340009 1778.5 1800 87 0.973 11.200708441096 266.75290946889 1360.3582384654
55854	35665120 2770 336543 340009 1778.5 1800 87 -20.271614074707 2.5 -22.60000038147 687.19658300197
55853	35667890 3193 336506 340009 1778.25 1800 88 0 15.242630004883 1163.1661920547 16594.406479559
55852	35671083 3283 336469 340009 1778 1800 89 180.20050048828 471.60000610352 28808.029052734 10107343.065744
55851	35674366 3291 336469 340009 1778 1800 89 486.85000610352 486.85000610352 43329.650543213 21095040.631426
55862	35677657 2937 336766 340009 1780 1800 81 0.973 11.200708441096 250.83126673051 1309.7224395174
55861	35680594 2710 336766 340009 1780 1800 81 -4.5 2.5 22.461149215698 143.65761133776
55860	35683304 3021 336729 340009 1779.75 1800 82 5.6500000953674 15.02499961853 1123.2309207916 15762.335961091
55859	35686325 3059 336691 340009 1779.5 1800 83 161.89556884766 438.89193725586 24199.862213135 7661699.3527931
55858	35689384 3070 336691 340009 1779.5 1800 83 486.85000610352 486.85000610352 40408.550506592 19672903.060768
55869	35692454 2500 336918 340009 1781 1800 77 0.973 10.756497587458 196.56858481494 1064.7306540025
55868	35694954 2792 336918 340009 1781 1800 77 -2.7550888061523 2.5 4.024097442627 124.32653832101
55867	35697746 2871 336879 340009 1780.75 1800 78 5.6500000953674 14.39999961853 915.74564647675 11232.573507191
55866	35700617 2922 336840 340009 1780.5 1800 79 486.85000610352 486.85000610352 38461.150482178 18724811.346996
55865	35703539 2908 336840 340009 1780.5 1800 79 558.93478393555 785.82187652588 53056.912910461 36050097.672618
55876	35706447 2583 336999 340009 1781.5 1800 75 0.973 10.594351124791 240.66065566879 1234.0375651818
55875	35709030 2612 336999 340009 1781.5 1800 75 -4.5 2.5 10.702417373657 214.00889341483
55874	35711642 2803 336959 340009 1781.25 1800 76 5.6500000953674 15.291888237 944.21834564209 12423.644800735
55873	35714445 2847 336918 340009 1781 1800 77 486.85000610352 486.85000610352 37487.450469971 18250765.49011
55872	35717292 2839 336918 340009 1781 1800 77 576.43969726562 809.56562805176 53460.021934509 37560581.31897
55883	35720131 2032 337744 340009 1786.25 1800 56 0.973 11.200708441096 220.95651825268 1303.5129267413
55882	35722163 1973 337744 340009 1786.25 1800 56 -4.2604751586914 2.5 34.690458297729 114.15287597702
55881	35724136 2093 337703 340009 1786 1800 57 5.6500000953674 15.661553382874 802.01859474182 11730.204699339
55880	35726229 2124 337662 340009 1785.75 1800 58 184.17810058594 379.85095214844 15757.947601318 4498984.9103932
55879	35728353 2145 337662 340009 1785.75 1800 58 486.85000610352 486.85000610352 28237.300354004 13747329.849694
55890	35730498 1474 338404 340009 1790.25 1800 40 2.1413957675631 11.200708441096 176.27471080226 1168.4025852002
55889	35731972 1440 338404 340009 1790.25 1800 40 -0.0018501281738281 2.5 37.492597579956 93.749998293617
55888	35733412 1501 338361 340009 1790 1800 41 5.6500000953674 15.02499961853 540.98425769806 7485.1764134197
55887	35734913 1550 338318 340009 1789.75 1800 42 655.58148193359 785.82187652588 30627.626441956 22405606.004675
55886	35736463 1553 338318 340009 1789.75 1800 42 483.14999389648 483.14999389648 20292.299743652 9804224.4972913
55897	35738016 847 339131 340009 1794.5 1800 23 1.7729555826186 11.648172402475 148.1926535691 1216.7216419582
55896	35738863 689 339131 340009 1794.5 1800 23 -0.11759185791016 2.5 39.592416763306 100.03103409645
55895	35739552 876 339090 340009 1794.25 1800 24 5.6500000953674 15.64999961853 290.08253288269 3785.8606747892
55894	35740428 906 339048 340009 1794 1800 25 184.17810058594 251.48718261719 5281.5833129883 1127031.7618158
55893	35741334 923 339048 340009 1794 1800 25 486.85000610352 486.85000610352 12171.250152588 5925573.2110748
50905	35742257 646 0 340008 0 1800 31 0 43 898 27798
50906	35742903 667 0 340008 0 1800 31 0 374 5802 1484808
