version 2
run nodebug-44-20200605-17:50:28-20012
attr configname nodebug
attr datetime 20200605-17:50:28
attr experiment nodebug
attr inifile omnetpp.ini
attr iterationvars ""
attr iterationvars2 $repetition=44
attr measurement ""
attr network "\"org.car2x.veins.modules.application.ExtTraCIScenarioManagerLaunchd.IntersectionExampleScenario\""
attr processid 20012
attr repetition 44
attr replication #44
attr resultdir results
attr runnumber 44
attr seedset 44
param **.coreDebug false
param **.debug false
param *.**.nic.mac1609_4.bitrate 18Mbps
param *.**.nic.mac1609_4.txPower 20mW
param *.**.nic.mac1609_4.useServiceChannel false
param *.**.nic.phy80211p.analogueModels "xmldoc(\"config.xml\")"
param *.**.nic.phy80211p.decider "xmldoc(\"config.xml\")"
param *.**.nic.phy80211p.sensitivity -89dBm
param *.**.nic.phy80211p.thermalNoise -110dBm
param *.**.nic.phy80211p.usePropagationDelay true
param *.**.nic.phy80211p.useThermalNoise true
param *.annotations.draw false
param *.connectionManager.alpha 2.0
param *.connectionManager.carrierFrequency "5.890e9 Hz"
param *.connectionManager.pMax 20mW
param *.connectionManager.sat -89dBm
param *.connectionManager.sendDirect true
param *.manager.autoShutdown true
param *.manager.host "\"localhost\""
param *.manager.launchConfig "xmldoc(\"paramics.launchd.xml\")"
param *.manager.margin 25
param *.manager.moduleDisplayString "\"\""
param *.manager.moduleName "\"node\""
param *.manager.moduleType "\"org.car2x.veins.nodes.Car\""
param *.manager.port 9999
param *.manager.updateInterval 250ms
param *.node[*0].veinsmobility.accidentCount 0
param *.node[*0].veinsmobility.accidentDuration 30s
param *.node[*0].veinsmobility.accidentStart 75s
param *.node[*].appl.LiderSelectZoneRadio 55.0
param *.node[*].appl.ShareDataZoneRadio 110.0
param *.node[*].appl.TiempoSemaforo 30.0
param *.node[*].appl.beaconInterval 1s
param *.node[*].appl.beaconPriority 3
param *.node[*].appl.dataOnSch false
param *.node[*].appl.dataPriority 2
param *.node[*].appl.debug false
param *.node[*].appl.headerLength "256 bit"
param *.node[*].appl.maxOffset 0.005s
param *.node[*].appl.sendBeacons false
param *.node[*].appl.sendData true
param *.node[*].applType "\"Dummy\""
param *.node[*].mobilityType "\"TraCIMobility\""
param *.node[*].mobilityType.debug true
param *.node[*].veinsmobility.x 0
param *.node[*].veinsmobility.y 0
param *.node[*].veinsmobility.z 1.895
param *.node[*].veinsmobilityType "\"org.car2x.veins.modules.mobility.traci.TraCIMobility\""
param *.node[*].veinsmobilityType.debug true
param *.playgroundSizeX 8500m
param *.playgroundSizeY 8500m
param *.playgroundSizeZ 50m
param *.world.use2D false
param *.world.useTorus false

scalar IntersectionExampleScenario.node[0].appl 	VehicleRemoved 	0
scalar IntersectionExampleScenario.node[0].appl 	ArrivedAtDest 	1
scalar IntersectionExampleScenario.node[0].appl 	IntersectionEnterTime 	3.25
scalar IntersectionExampleScenario.node[0].appl 	IntersectionExitTime 	25.79506260436
scalar IntersectionExampleScenario.node[0].appl 	NumberOfCollisions 	0
scalar IntersectionExampleScenario.node[0].nic.phy80211p 	busyTime 	0
scalar IntersectionExampleScenario.node[0].nic.mac1609_4 	ReceivedUnicastPackets 	0
scalar IntersectionExampleScenario.node[0].nic.mac1609_4 	ReceivedBroadcasts 	0
scalar IntersectionExampleScenario.node[0].nic.mac1609_4 	SentPackets 	0
scalar IntersectionExampleScenario.node[0].nic.mac1609_4 	SNIRLostPackets 	0
scalar IntersectionExampleScenario.node[0].nic.mac1609_4 	RXTXLostPackets 	0
scalar IntersectionExampleScenario.node[0].nic.mac1609_4 	TotalLostPackets 	0
scalar IntersectionExampleScenario.node[0].nic.mac1609_4 	DroppedPacketsInMac 	0
scalar IntersectionExampleScenario.node[0].nic.mac1609_4 	TooLittleTime 	0
scalar IntersectionExampleScenario.node[0].nic.mac1609_4 	TimesIntoBackoff 	0
scalar IntersectionExampleScenario.node[0].nic.mac1609_4 	SlotsBackoff 	0
scalar IntersectionExampleScenario.node[0].nic.mac1609_4 	NumInternalContention 	0
scalar IntersectionExampleScenario.node[0].nic.mac1609_4 	totalBusyTime 	0
scalar IntersectionExampleScenario.node[0].veinsmobility 	startTime 	3.25
scalar IntersectionExampleScenario.node[0].veinsmobility 	totalTime 	38.25
scalar IntersectionExampleScenario.node[0].veinsmobility 	stopTime 	41.75
scalar IntersectionExampleScenario.node[0].veinsmobility 	minSpeed 	5.6500000953674
scalar IntersectionExampleScenario.node[0].veinsmobility 	maxSpeed 	16.125
scalar IntersectionExampleScenario.node[0].veinsmobility 	totalDistance 	553.92374420166
scalar IntersectionExampleScenario.node[0].veinsmobility 	totalCO2Emission 	120.06356894873
scalar IntersectionExampleScenario.node[4].appl 	VehicleRemoved 	0
scalar IntersectionExampleScenario.node[4].appl 	ArrivedAtDest 	1
scalar IntersectionExampleScenario.node[4].appl 	IntersectionEnterTime 	12.5
scalar IntersectionExampleScenario.node[4].appl 	IntersectionExitTime 	36.026728101977
scalar IntersectionExampleScenario.node[4].appl 	NumberOfCollisions 	0
scalar IntersectionExampleScenario.node[4].nic.phy80211p 	busyTime 	0
scalar IntersectionExampleScenario.node[4].nic.mac1609_4 	ReceivedUnicastPackets 	0
scalar IntersectionExampleScenario.node[4].nic.mac1609_4 	ReceivedBroadcasts 	0
scalar IntersectionExampleScenario.node[4].nic.mac1609_4 	SentPackets 	0
scalar IntersectionExampleScenario.node[4].nic.mac1609_4 	SNIRLostPackets 	0
scalar IntersectionExampleScenario.node[4].nic.mac1609_4 	RXTXLostPackets 	0
scalar IntersectionExampleScenario.node[4].nic.mac1609_4 	TotalLostPackets 	0
scalar IntersectionExampleScenario.node[4].nic.mac1609_4 	DroppedPacketsInMac 	0
scalar IntersectionExampleScenario.node[4].nic.mac1609_4 	TooLittleTime 	0
scalar IntersectionExampleScenario.node[4].nic.mac1609_4 	TimesIntoBackoff 	0
scalar IntersectionExampleScenario.node[4].nic.mac1609_4 	SlotsBackoff 	0
scalar IntersectionExampleScenario.node[4].nic.mac1609_4 	NumInternalContention 	0
scalar IntersectionExampleScenario.node[4].nic.mac1609_4 	totalBusyTime 	0
scalar IntersectionExampleScenario.node[4].veinsmobility 	startTime 	12.5
scalar IntersectionExampleScenario.node[4].veinsmobility 	totalTime 	40
scalar IntersectionExampleScenario.node[4].veinsmobility 	stopTime 	52.75
scalar IntersectionExampleScenario.node[4].veinsmobility 	minSpeed 	5.6500000953674
scalar IntersectionExampleScenario.node[4].veinsmobility 	maxSpeed 	15.02499961853
scalar IntersectionExampleScenario.node[4].veinsmobility 	totalDistance 	553.0140838623
scalar IntersectionExampleScenario.node[4].veinsmobility 	totalCO2Emission 	114.18256448094
scalar IntersectionExampleScenario.node[6].appl 	VehicleRemoved 	0
scalar IntersectionExampleScenario.node[6].appl 	ArrivedAtDest 	1
scalar IntersectionExampleScenario.node[6].appl 	IntersectionEnterTime 	14
scalar IntersectionExampleScenario.node[6].appl 	IntersectionExitTime 	39.268606007623
scalar IntersectionExampleScenario.node[6].appl 	NumberOfCollisions 	0
scalar IntersectionExampleScenario.node[6].nic.phy80211p 	busyTime 	0
scalar IntersectionExampleScenario.node[6].nic.mac1609_4 	ReceivedUnicastPackets 	0
scalar IntersectionExampleScenario.node[6].nic.mac1609_4 	ReceivedBroadcasts 	0
scalar IntersectionExampleScenario.node[6].nic.mac1609_4 	SentPackets 	0
scalar IntersectionExampleScenario.node[6].nic.mac1609_4 	SNIRLostPackets 	0
scalar IntersectionExampleScenario.node[6].nic.mac1609_4 	RXTXLostPackets 	0
scalar IntersectionExampleScenario.node[6].nic.mac1609_4 	TotalLostPackets 	0
scalar IntersectionExampleScenario.node[6].nic.mac1609_4 	DroppedPacketsInMac 	0
scalar IntersectionExampleScenario.node[6].nic.mac1609_4 	TooLittleTime 	0
scalar IntersectionExampleScenario.node[6].nic.mac1609_4 	TimesIntoBackoff 	0
scalar IntersectionExampleScenario.node[6].nic.mac1609_4 	SlotsBackoff 	0
scalar IntersectionExampleScenario.node[6].nic.mac1609_4 	NumInternalContention 	0
scalar IntersectionExampleScenario.node[6].nic.mac1609_4 	totalBusyTime 	0
scalar IntersectionExampleScenario.node[6].veinsmobility 	startTime 	14
scalar IntersectionExampleScenario.node[6].veinsmobility 	totalTime 	42.25
scalar IntersectionExampleScenario.node[6].veinsmobility 	stopTime 	56.5
scalar IntersectionExampleScenario.node[6].veinsmobility 	minSpeed 	5.6500000953674
scalar IntersectionExampleScenario.node[6].veinsmobility 	maxSpeed 	15.25
scalar IntersectionExampleScenario.node[6].veinsmobility 	totalDistance 	564.83800706072
scalar IntersectionExampleScenario.node[6].veinsmobility 	totalCO2Emission 	131.72126818404
scalar IntersectionExampleScenario.node[12].appl 	VehicleRemoved 	0
scalar IntersectionExampleScenario.node[12].appl 	ArrivedAtDest 	1
scalar IntersectionExampleScenario.node[12].appl 	IntersectionEnterTime 	21.75
scalar IntersectionExampleScenario.node[12].appl 	IntersectionExitTime 	43.620218025462
scalar IntersectionExampleScenario.node[12].appl 	NumberOfCollisions 	0
scalar IntersectionExampleScenario.node[12].nic.phy80211p 	busyTime 	0
scalar IntersectionExampleScenario.node[12].nic.mac1609_4 	ReceivedUnicastPackets 	0
scalar IntersectionExampleScenario.node[12].nic.mac1609_4 	ReceivedBroadcasts 	0
scalar IntersectionExampleScenario.node[12].nic.mac1609_4 	SentPackets 	0
scalar IntersectionExampleScenario.node[12].nic.mac1609_4 	SNIRLostPackets 	0
scalar IntersectionExampleScenario.node[12].nic.mac1609_4 	RXTXLostPackets 	0
scalar IntersectionExampleScenario.node[12].nic.mac1609_4 	TotalLostPackets 	0
scalar IntersectionExampleScenario.node[12].nic.mac1609_4 	DroppedPacketsInMac 	0
scalar IntersectionExampleScenario.node[12].nic.mac1609_4 	TooLittleTime 	0
scalar IntersectionExampleScenario.node[12].nic.mac1609_4 	TimesIntoBackoff 	0
scalar IntersectionExampleScenario.node[12].nic.mac1609_4 	SlotsBackoff 	0
scalar IntersectionExampleScenario.node[12].nic.mac1609_4 	NumInternalContention 	0
scalar IntersectionExampleScenario.node[12].nic.mac1609_4 	totalBusyTime 	0
scalar IntersectionExampleScenario.node[12].veinsmobility 	startTime 	21.75
scalar IntersectionExampleScenario.node[12].veinsmobility 	totalTime 	36.75
scalar IntersectionExampleScenario.node[12].veinsmobility 	stopTime 	58.75
scalar IntersectionExampleScenario.node[12].veinsmobility 	minSpeed 	5.6500000953674
scalar IntersectionExampleScenario.node[12].veinsmobility 	maxSpeed 	16.749908447266
scalar IntersectionExampleScenario.node[12].veinsmobility 	totalDistance 	553.44862365723
scalar IntersectionExampleScenario.node[12].veinsmobility 	totalCO2Emission 	127.7867479051
scalar IntersectionExampleScenario.node[13].appl 	VehicleRemoved 	0
scalar IntersectionExampleScenario.node[13].appl 	ArrivedAtDest 	1
scalar IntersectionExampleScenario.node[13].appl 	IntersectionEnterTime 	25.75
scalar IntersectionExampleScenario.node[13].appl 	IntersectionExitTime 	49.33213453379
scalar IntersectionExampleScenario.node[13].appl 	NumberOfCollisions 	0
scalar IntersectionExampleScenario.node[13].nic.phy80211p 	busyTime 	0
scalar IntersectionExampleScenario.node[13].nic.mac1609_4 	ReceivedUnicastPackets 	0
scalar IntersectionExampleScenario.node[13].nic.mac1609_4 	ReceivedBroadcasts 	0
scalar IntersectionExampleScenario.node[13].nic.mac1609_4 	SentPackets 	0
scalar IntersectionExampleScenario.node[13].nic.mac1609_4 	SNIRLostPackets 	0
scalar IntersectionExampleScenario.node[13].nic.mac1609_4 	RXTXLostPackets 	0
scalar IntersectionExampleScenario.node[13].nic.mac1609_4 	TotalLostPackets 	0
scalar IntersectionExampleScenario.node[13].nic.mac1609_4 	DroppedPacketsInMac 	0
scalar IntersectionExampleScenario.node[13].nic.mac1609_4 	TooLittleTime 	0
scalar IntersectionExampleScenario.node[13].nic.mac1609_4 	TimesIntoBackoff 	0
scalar IntersectionExampleScenario.node[13].nic.mac1609_4 	SlotsBackoff 	0
scalar IntersectionExampleScenario.node[13].nic.mac1609_4 	NumInternalContention 	0
scalar IntersectionExampleScenario.node[13].nic.mac1609_4 	totalBusyTime 	0
scalar IntersectionExampleScenario.node[13].veinsmobility 	startTime 	25.75
scalar IntersectionExampleScenario.node[13].veinsmobility 	totalTime 	40
scalar IntersectionExampleScenario.node[13].veinsmobility 	stopTime 	66
scalar IntersectionExampleScenario.node[13].veinsmobility 	minSpeed 	5.6500000953674
scalar IntersectionExampleScenario.node[13].veinsmobility 	maxSpeed 	15.375
scalar IntersectionExampleScenario.node[13].veinsmobility 	totalDistance 	549.31681621147
scalar IntersectionExampleScenario.node[13].veinsmobility 	totalCO2Emission 	120.7194466891
scalar IntersectionExampleScenario.node[1].appl 	VehicleRemoved 	0
scalar IntersectionExampleScenario.node[1].appl 	ArrivedAtDest 	1
scalar IntersectionExampleScenario.node[1].appl 	IntersectionEnterTime 	5.75
scalar IntersectionExampleScenario.node[1].appl 	IntersectionExitTime 	50.80113407661
scalar IntersectionExampleScenario.node[1].appl 	NumberOfCollisions 	0
scalar IntersectionExampleScenario.node[1].nic.phy80211p 	busyTime 	0
scalar IntersectionExampleScenario.node[1].nic.mac1609_4 	ReceivedUnicastPackets 	0
scalar IntersectionExampleScenario.node[1].nic.mac1609_4 	ReceivedBroadcasts 	0
scalar IntersectionExampleScenario.node[1].nic.mac1609_4 	SentPackets 	0
scalar IntersectionExampleScenario.node[1].nic.mac1609_4 	SNIRLostPackets 	0
scalar IntersectionExampleScenario.node[1].nic.mac1609_4 	RXTXLostPackets 	0
scalar IntersectionExampleScenario.node[1].nic.mac1609_4 	TotalLostPackets 	0
scalar IntersectionExampleScenario.node[1].nic.mac1609_4 	DroppedPacketsInMac 	0
scalar IntersectionExampleScenario.node[1].nic.mac1609_4 	TooLittleTime 	0
scalar IntersectionExampleScenario.node[1].nic.mac1609_4 	TimesIntoBackoff 	0
scalar IntersectionExampleScenario.node[1].nic.mac1609_4 	SlotsBackoff 	0
scalar IntersectionExampleScenario.node[1].nic.mac1609_4 	NumInternalContention 	0
scalar IntersectionExampleScenario.node[1].nic.mac1609_4 	totalBusyTime 	0
scalar IntersectionExampleScenario.node[1].veinsmobility 	startTime 	5.75
scalar IntersectionExampleScenario.node[1].veinsmobility 	totalTime 	61.25
scalar IntersectionExampleScenario.node[1].veinsmobility 	stopTime 	67.25
scalar IntersectionExampleScenario.node[1].veinsmobility 	minSpeed 	0
scalar IntersectionExampleScenario.node[1].veinsmobility 	maxSpeed 	15.64999961853
scalar IntersectionExampleScenario.node[1].veinsmobility 	totalDistance 	550.89402132463
scalar IntersectionExampleScenario.node[1].veinsmobility 	totalCO2Emission 	153.28563245
scalar IntersectionExampleScenario.node[7].appl 	VehicleRemoved 	0
scalar IntersectionExampleScenario.node[7].appl 	ArrivedAtDest 	1
scalar IntersectionExampleScenario.node[7].appl 	IntersectionEnterTime 	15.25
scalar IntersectionExampleScenario.node[7].appl 	IntersectionExitTime 	54.513002870051
scalar IntersectionExampleScenario.node[7].appl 	NumberOfCollisions 	0
scalar IntersectionExampleScenario.node[7].nic.phy80211p 	busyTime 	0
scalar IntersectionExampleScenario.node[7].nic.mac1609_4 	ReceivedUnicastPackets 	0
scalar IntersectionExampleScenario.node[7].nic.mac1609_4 	ReceivedBroadcasts 	0
scalar IntersectionExampleScenario.node[7].nic.mac1609_4 	SentPackets 	0
scalar IntersectionExampleScenario.node[7].nic.mac1609_4 	SNIRLostPackets 	0
scalar IntersectionExampleScenario.node[7].nic.mac1609_4 	RXTXLostPackets 	0
scalar IntersectionExampleScenario.node[7].nic.mac1609_4 	TotalLostPackets 	0
scalar IntersectionExampleScenario.node[7].nic.mac1609_4 	DroppedPacketsInMac 	0
scalar IntersectionExampleScenario.node[7].nic.mac1609_4 	TooLittleTime 	0
scalar IntersectionExampleScenario.node[7].nic.mac1609_4 	TimesIntoBackoff 	0
scalar IntersectionExampleScenario.node[7].nic.mac1609_4 	SlotsBackoff 	0
scalar IntersectionExampleScenario.node[7].nic.mac1609_4 	NumInternalContention 	0
scalar IntersectionExampleScenario.node[7].nic.mac1609_4 	totalBusyTime 	0
scalar IntersectionExampleScenario.node[7].veinsmobility 	startTime 	15.25
scalar IntersectionExampleScenario.node[7].veinsmobility 	totalTime 	54.75
scalar IntersectionExampleScenario.node[7].veinsmobility 	stopTime 	70.25
scalar IntersectionExampleScenario.node[7].veinsmobility 	minSpeed 	0
scalar IntersectionExampleScenario.node[7].veinsmobility 	maxSpeed 	15.941807746887
scalar IntersectionExampleScenario.node[7].veinsmobility 	totalDistance 	554.16017150879
scalar IntersectionExampleScenario.node[7].veinsmobility 	totalCO2Emission 	150.87883517439
scalar IntersectionExampleScenario.node[3].appl 	VehicleRemoved 	0
scalar IntersectionExampleScenario.node[3].appl 	ArrivedAtDest 	1
scalar IntersectionExampleScenario.node[3].appl 	IntersectionEnterTime 	9.25
scalar IntersectionExampleScenario.node[3].appl 	IntersectionExitTime 	52.119684008067
scalar IntersectionExampleScenario.node[3].appl 	NumberOfCollisions 	0
scalar IntersectionExampleScenario.node[3].nic.phy80211p 	busyTime 	0
scalar IntersectionExampleScenario.node[3].nic.mac1609_4 	ReceivedUnicastPackets 	0
scalar IntersectionExampleScenario.node[3].nic.mac1609_4 	ReceivedBroadcasts 	0
scalar IntersectionExampleScenario.node[3].nic.mac1609_4 	SentPackets 	0
scalar IntersectionExampleScenario.node[3].nic.mac1609_4 	SNIRLostPackets 	0
scalar IntersectionExampleScenario.node[3].nic.mac1609_4 	RXTXLostPackets 	0
scalar IntersectionExampleScenario.node[3].nic.mac1609_4 	TotalLostPackets 	0
scalar IntersectionExampleScenario.node[3].nic.mac1609_4 	DroppedPacketsInMac 	0
scalar IntersectionExampleScenario.node[3].nic.mac1609_4 	TooLittleTime 	0
scalar IntersectionExampleScenario.node[3].nic.mac1609_4 	TimesIntoBackoff 	0
scalar IntersectionExampleScenario.node[3].nic.mac1609_4 	SlotsBackoff 	0
scalar IntersectionExampleScenario.node[3].nic.mac1609_4 	NumInternalContention 	0
scalar IntersectionExampleScenario.node[3].nic.mac1609_4 	totalBusyTime 	0
scalar IntersectionExampleScenario.node[3].veinsmobility 	startTime 	9.25
scalar IntersectionExampleScenario.node[3].veinsmobility 	totalTime 	61
scalar IntersectionExampleScenario.node[3].veinsmobility 	stopTime 	70.5
scalar IntersectionExampleScenario.node[3].veinsmobility 	minSpeed 	0
scalar IntersectionExampleScenario.node[3].veinsmobility 	maxSpeed 	14.39999961853
scalar IntersectionExampleScenario.node[3].veinsmobility 	totalDistance 	555.36057315763
scalar IntersectionExampleScenario.node[3].veinsmobility 	totalCO2Emission 	141.13721563081
scalar IntersectionExampleScenario.node[8].appl 	VehicleRemoved 	0
scalar IntersectionExampleScenario.node[8].appl 	ArrivedAtDest 	1
scalar IntersectionExampleScenario.node[8].appl 	IntersectionEnterTime 	17.25
scalar IntersectionExampleScenario.node[8].appl 	IntersectionExitTime 	56.873852835095
scalar IntersectionExampleScenario.node[8].appl 	NumberOfCollisions 	0
scalar IntersectionExampleScenario.node[8].nic.phy80211p 	busyTime 	0
scalar IntersectionExampleScenario.node[8].nic.mac1609_4 	ReceivedUnicastPackets 	0
scalar IntersectionExampleScenario.node[8].nic.mac1609_4 	ReceivedBroadcasts 	0
scalar IntersectionExampleScenario.node[8].nic.mac1609_4 	SentPackets 	0
scalar IntersectionExampleScenario.node[8].nic.mac1609_4 	SNIRLostPackets 	0
scalar IntersectionExampleScenario.node[8].nic.mac1609_4 	RXTXLostPackets 	0
scalar IntersectionExampleScenario.node[8].nic.mac1609_4 	TotalLostPackets 	0
scalar IntersectionExampleScenario.node[8].nic.mac1609_4 	DroppedPacketsInMac 	0
scalar IntersectionExampleScenario.node[8].nic.mac1609_4 	TooLittleTime 	0
scalar IntersectionExampleScenario.node[8].nic.mac1609_4 	TimesIntoBackoff 	0
scalar IntersectionExampleScenario.node[8].nic.mac1609_4 	SlotsBackoff 	0
scalar IntersectionExampleScenario.node[8].nic.mac1609_4 	NumInternalContention 	0
scalar IntersectionExampleScenario.node[8].nic.mac1609_4 	totalBusyTime 	0
scalar IntersectionExampleScenario.node[8].veinsmobility 	startTime 	17.25
scalar IntersectionExampleScenario.node[8].veinsmobility 	totalTime 	56.25
scalar IntersectionExampleScenario.node[8].veinsmobility 	stopTime 	73.75
scalar IntersectionExampleScenario.node[8].veinsmobility 	minSpeed 	0
scalar IntersectionExampleScenario.node[8].veinsmobility 	maxSpeed 	15.666266441345
scalar IntersectionExampleScenario.node[8].veinsmobility 	totalDistance 	563.61504126385
scalar IntersectionExampleScenario.node[8].veinsmobility 	totalCO2Emission 	153.51710375186
scalar IntersectionExampleScenario.node[15].appl 	VehicleRemoved 	0
scalar IntersectionExampleScenario.node[15].appl 	ArrivedAtDest 	1
scalar IntersectionExampleScenario.node[15].appl 	IntersectionEnterTime 	43
scalar IntersectionExampleScenario.node[15].appl 	IntersectionExitTime 	65.318684868835
scalar IntersectionExampleScenario.node[15].appl 	NumberOfCollisions 	0
scalar IntersectionExampleScenario.node[15].nic.phy80211p 	busyTime 	0
scalar IntersectionExampleScenario.node[15].nic.mac1609_4 	ReceivedUnicastPackets 	0
scalar IntersectionExampleScenario.node[15].nic.mac1609_4 	ReceivedBroadcasts 	0
scalar IntersectionExampleScenario.node[15].nic.mac1609_4 	SentPackets 	0
scalar IntersectionExampleScenario.node[15].nic.mac1609_4 	SNIRLostPackets 	0
scalar IntersectionExampleScenario.node[15].nic.mac1609_4 	RXTXLostPackets 	0
scalar IntersectionExampleScenario.node[15].nic.mac1609_4 	TotalLostPackets 	0
scalar IntersectionExampleScenario.node[15].nic.mac1609_4 	DroppedPacketsInMac 	0
scalar IntersectionExampleScenario.node[15].nic.mac1609_4 	TooLittleTime 	0
scalar IntersectionExampleScenario.node[15].nic.mac1609_4 	TimesIntoBackoff 	0
scalar IntersectionExampleScenario.node[15].nic.mac1609_4 	SlotsBackoff 	0
scalar IntersectionExampleScenario.node[15].nic.mac1609_4 	NumInternalContention 	0
scalar IntersectionExampleScenario.node[15].nic.mac1609_4 	totalBusyTime 	0
scalar IntersectionExampleScenario.node[15].veinsmobility 	startTime 	43
scalar IntersectionExampleScenario.node[15].veinsmobility 	totalTime 	37.5
scalar IntersectionExampleScenario.node[15].veinsmobility 	stopTime 	80.75
scalar IntersectionExampleScenario.node[15].veinsmobility 	minSpeed 	5.6500000953674
scalar IntersectionExampleScenario.node[15].veinsmobility 	maxSpeed 	16.27499961853
scalar IntersectionExampleScenario.node[15].veinsmobility 	totalDistance 	551.9393157959
scalar IntersectionExampleScenario.node[15].veinsmobility 	totalCO2Emission 	122.15621062424
scalar IntersectionExampleScenario.node[16].appl 	VehicleRemoved 	0
scalar IntersectionExampleScenario.node[16].appl 	ArrivedAtDest 	1
scalar IntersectionExampleScenario.node[16].appl 	IntersectionEnterTime 	44
scalar IntersectionExampleScenario.node[16].appl 	IntersectionExitTime 	68.832284223987
scalar IntersectionExampleScenario.node[16].appl 	NumberOfCollisions 	0
scalar IntersectionExampleScenario.node[16].nic.phy80211p 	busyTime 	0
scalar IntersectionExampleScenario.node[16].nic.mac1609_4 	ReceivedUnicastPackets 	0
scalar IntersectionExampleScenario.node[16].nic.mac1609_4 	ReceivedBroadcasts 	0
scalar IntersectionExampleScenario.node[16].nic.mac1609_4 	SentPackets 	0
scalar IntersectionExampleScenario.node[16].nic.mac1609_4 	SNIRLostPackets 	0
scalar IntersectionExampleScenario.node[16].nic.mac1609_4 	RXTXLostPackets 	0
scalar IntersectionExampleScenario.node[16].nic.mac1609_4 	TotalLostPackets 	0
scalar IntersectionExampleScenario.node[16].nic.mac1609_4 	DroppedPacketsInMac 	0
scalar IntersectionExampleScenario.node[16].nic.mac1609_4 	TooLittleTime 	0
scalar IntersectionExampleScenario.node[16].nic.mac1609_4 	TimesIntoBackoff 	0
scalar IntersectionExampleScenario.node[16].nic.mac1609_4 	SlotsBackoff 	0
scalar IntersectionExampleScenario.node[16].nic.mac1609_4 	NumInternalContention 	0
scalar IntersectionExampleScenario.node[16].nic.mac1609_4 	totalBusyTime 	0
scalar IntersectionExampleScenario.node[16].veinsmobility 	startTime 	44
scalar IntersectionExampleScenario.node[16].veinsmobility 	totalTime 	41
scalar IntersectionExampleScenario.node[16].veinsmobility 	stopTime 	85.25
scalar IntersectionExampleScenario.node[16].veinsmobility 	minSpeed 	5.6500000953674
scalar IntersectionExampleScenario.node[16].veinsmobility 	maxSpeed 	15.875
scalar IntersectionExampleScenario.node[16].veinsmobility 	totalDistance 	565.02565761233
scalar IntersectionExampleScenario.node[16].veinsmobility 	totalCO2Emission 	138.40082527457
scalar IntersectionExampleScenario.node[17].appl 	VehicleRemoved 	0
scalar IntersectionExampleScenario.node[17].appl 	ArrivedAtDest 	1
scalar IntersectionExampleScenario.node[17].appl 	IntersectionEnterTime 	46.25
scalar IntersectionExampleScenario.node[17].appl 	IntersectionExitTime 	71.311209504434
scalar IntersectionExampleScenario.node[17].appl 	NumberOfCollisions 	0
scalar IntersectionExampleScenario.node[17].nic.phy80211p 	busyTime 	0
scalar IntersectionExampleScenario.node[17].nic.mac1609_4 	ReceivedUnicastPackets 	0
scalar IntersectionExampleScenario.node[17].nic.mac1609_4 	ReceivedBroadcasts 	0
scalar IntersectionExampleScenario.node[17].nic.mac1609_4 	SentPackets 	0
scalar IntersectionExampleScenario.node[17].nic.mac1609_4 	SNIRLostPackets 	0
scalar IntersectionExampleScenario.node[17].nic.mac1609_4 	RXTXLostPackets 	0
scalar IntersectionExampleScenario.node[17].nic.mac1609_4 	TotalLostPackets 	0
scalar IntersectionExampleScenario.node[17].nic.mac1609_4 	DroppedPacketsInMac 	0
scalar IntersectionExampleScenario.node[17].nic.mac1609_4 	TooLittleTime 	0
scalar IntersectionExampleScenario.node[17].nic.mac1609_4 	TimesIntoBackoff 	0
scalar IntersectionExampleScenario.node[17].nic.mac1609_4 	SlotsBackoff 	0
scalar IntersectionExampleScenario.node[17].nic.mac1609_4 	NumInternalContention 	0
scalar IntersectionExampleScenario.node[17].nic.mac1609_4 	totalBusyTime 	0
scalar IntersectionExampleScenario.node[17].veinsmobility 	startTime 	46.25
scalar IntersectionExampleScenario.node[17].veinsmobility 	totalTime 	41
scalar IntersectionExampleScenario.node[17].veinsmobility 	stopTime 	87.5
scalar IntersectionExampleScenario.node[17].veinsmobility 	minSpeed 	5.6500000953674
scalar IntersectionExampleScenario.node[17].veinsmobility 	maxSpeed 	15.64999961853
scalar IntersectionExampleScenario.node[17].veinsmobility 	totalDistance 	582.53665161133
scalar IntersectionExampleScenario.node[17].veinsmobility 	totalCO2Emission 	130.26845174092
scalar IntersectionExampleScenario.node[19].appl 	VehicleRemoved 	0
scalar IntersectionExampleScenario.node[19].appl 	ArrivedAtDest 	1
scalar IntersectionExampleScenario.node[19].appl 	IntersectionEnterTime 	48.75
scalar IntersectionExampleScenario.node[19].appl 	IntersectionExitTime 	74.301785007963
scalar IntersectionExampleScenario.node[19].appl 	NumberOfCollisions 	0
scalar IntersectionExampleScenario.node[19].nic.phy80211p 	busyTime 	0
scalar IntersectionExampleScenario.node[19].nic.mac1609_4 	ReceivedUnicastPackets 	0
scalar IntersectionExampleScenario.node[19].nic.mac1609_4 	ReceivedBroadcasts 	0
scalar IntersectionExampleScenario.node[19].nic.mac1609_4 	SentPackets 	0
scalar IntersectionExampleScenario.node[19].nic.mac1609_4 	SNIRLostPackets 	0
scalar IntersectionExampleScenario.node[19].nic.mac1609_4 	RXTXLostPackets 	0
scalar IntersectionExampleScenario.node[19].nic.mac1609_4 	TotalLostPackets 	0
scalar IntersectionExampleScenario.node[19].nic.mac1609_4 	DroppedPacketsInMac 	0
scalar IntersectionExampleScenario.node[19].nic.mac1609_4 	TooLittleTime 	0
scalar IntersectionExampleScenario.node[19].nic.mac1609_4 	TimesIntoBackoff 	0
scalar IntersectionExampleScenario.node[19].nic.mac1609_4 	SlotsBackoff 	0
scalar IntersectionExampleScenario.node[19].nic.mac1609_4 	NumInternalContention 	0
scalar IntersectionExampleScenario.node[19].nic.mac1609_4 	totalBusyTime 	0
scalar IntersectionExampleScenario.node[19].veinsmobility 	startTime 	48.75
scalar IntersectionExampleScenario.node[19].veinsmobility 	totalTime 	42
scalar IntersectionExampleScenario.node[19].veinsmobility 	stopTime 	91
scalar IntersectionExampleScenario.node[19].veinsmobility 	minSpeed 	5.6500000953674
scalar IntersectionExampleScenario.node[19].veinsmobility 	maxSpeed 	15.875
scalar IntersectionExampleScenario.node[19].veinsmobility 	totalDistance 	575.82475471727
scalar IntersectionExampleScenario.node[19].veinsmobility 	totalCO2Emission 	137.05723895353
scalar IntersectionExampleScenario.node[2].appl 	VehicleRemoved 	0
scalar IntersectionExampleScenario.node[2].appl 	ArrivedAtDest 	1
scalar IntersectionExampleScenario.node[2].appl 	IntersectionEnterTime 	6
scalar IntersectionExampleScenario.node[2].appl 	IntersectionExitTime 	86.557077638485
scalar IntersectionExampleScenario.node[2].appl 	NumberOfCollisions 	0
scalar IntersectionExampleScenario.node[2].nic.phy80211p 	busyTime 	0
scalar IntersectionExampleScenario.node[2].nic.mac1609_4 	ReceivedUnicastPackets 	0
scalar IntersectionExampleScenario.node[2].nic.mac1609_4 	ReceivedBroadcasts 	0
scalar IntersectionExampleScenario.node[2].nic.mac1609_4 	SentPackets 	0
scalar IntersectionExampleScenario.node[2].nic.mac1609_4 	SNIRLostPackets 	0
scalar IntersectionExampleScenario.node[2].nic.mac1609_4 	RXTXLostPackets 	0
scalar IntersectionExampleScenario.node[2].nic.mac1609_4 	TotalLostPackets 	0
scalar IntersectionExampleScenario.node[2].nic.mac1609_4 	DroppedPacketsInMac 	0
scalar IntersectionExampleScenario.node[2].nic.mac1609_4 	TooLittleTime 	0
scalar IntersectionExampleScenario.node[2].nic.mac1609_4 	TimesIntoBackoff 	0
scalar IntersectionExampleScenario.node[2].nic.mac1609_4 	SlotsBackoff 	0
scalar IntersectionExampleScenario.node[2].nic.mac1609_4 	NumInternalContention 	0
scalar IntersectionExampleScenario.node[2].nic.mac1609_4 	totalBusyTime 	0
scalar IntersectionExampleScenario.node[2].veinsmobility 	startTime 	6
scalar IntersectionExampleScenario.node[2].veinsmobility 	totalTime 	97.75
scalar IntersectionExampleScenario.node[2].veinsmobility 	stopTime 	104
scalar IntersectionExampleScenario.node[2].veinsmobility 	minSpeed 	0
scalar IntersectionExampleScenario.node[2].veinsmobility 	maxSpeed 	15.25
scalar IntersectionExampleScenario.node[2].veinsmobility 	totalDistance 	544.91895963103
scalar IntersectionExampleScenario.node[2].veinsmobility 	totalCO2Emission 	184.2426924346
scalar IntersectionExampleScenario.node[5].appl 	VehicleRemoved 	0
scalar IntersectionExampleScenario.node[5].appl 	ArrivedAtDest 	1
scalar IntersectionExampleScenario.node[5].appl 	IntersectionEnterTime 	13.5
scalar IntersectionExampleScenario.node[5].appl 	IntersectionExitTime 	88.359232898627
scalar IntersectionExampleScenario.node[5].appl 	NumberOfCollisions 	0
scalar IntersectionExampleScenario.node[5].nic.phy80211p 	busyTime 	0
scalar IntersectionExampleScenario.node[5].nic.mac1609_4 	ReceivedUnicastPackets 	0
scalar IntersectionExampleScenario.node[5].nic.mac1609_4 	ReceivedBroadcasts 	0
scalar IntersectionExampleScenario.node[5].nic.mac1609_4 	SentPackets 	0
scalar IntersectionExampleScenario.node[5].nic.mac1609_4 	SNIRLostPackets 	0
scalar IntersectionExampleScenario.node[5].nic.mac1609_4 	RXTXLostPackets 	0
scalar IntersectionExampleScenario.node[5].nic.mac1609_4 	TotalLostPackets 	0
scalar IntersectionExampleScenario.node[5].nic.mac1609_4 	DroppedPacketsInMac 	0
scalar IntersectionExampleScenario.node[5].nic.mac1609_4 	TooLittleTime 	0
scalar IntersectionExampleScenario.node[5].nic.mac1609_4 	TimesIntoBackoff 	0
scalar IntersectionExampleScenario.node[5].nic.mac1609_4 	SlotsBackoff 	0
scalar IntersectionExampleScenario.node[5].nic.mac1609_4 	NumInternalContention 	0
scalar IntersectionExampleScenario.node[5].nic.mac1609_4 	totalBusyTime 	0
scalar IntersectionExampleScenario.node[5].veinsmobility 	startTime 	13.5
scalar IntersectionExampleScenario.node[5].veinsmobility 	totalTime 	90.75
scalar IntersectionExampleScenario.node[5].veinsmobility 	stopTime 	104.5
scalar IntersectionExampleScenario.node[5].veinsmobility 	minSpeed 	0
scalar IntersectionExampleScenario.node[5].veinsmobility 	maxSpeed 	15.64999961853
scalar IntersectionExampleScenario.node[5].veinsmobility 	totalDistance 	552.64347076416
scalar IntersectionExampleScenario.node[5].veinsmobility 	totalCO2Emission 	180.17636817695
scalar IntersectionExampleScenario.node[11].appl 	VehicleRemoved 	0
scalar IntersectionExampleScenario.node[11].appl 	ArrivedAtDest 	1
scalar IntersectionExampleScenario.node[11].appl 	IntersectionEnterTime 	20.25
scalar IntersectionExampleScenario.node[11].appl 	IntersectionExitTime 	90.507574058865
scalar IntersectionExampleScenario.node[11].appl 	NumberOfCollisions 	0
scalar IntersectionExampleScenario.node[11].nic.phy80211p 	busyTime 	0
scalar IntersectionExampleScenario.node[11].nic.mac1609_4 	ReceivedUnicastPackets 	0
scalar IntersectionExampleScenario.node[11].nic.mac1609_4 	ReceivedBroadcasts 	0
scalar IntersectionExampleScenario.node[11].nic.mac1609_4 	SentPackets 	0
scalar IntersectionExampleScenario.node[11].nic.mac1609_4 	SNIRLostPackets 	0
scalar IntersectionExampleScenario.node[11].nic.mac1609_4 	RXTXLostPackets 	0
scalar IntersectionExampleScenario.node[11].nic.mac1609_4 	TotalLostPackets 	0
scalar IntersectionExampleScenario.node[11].nic.mac1609_4 	DroppedPacketsInMac 	0
scalar IntersectionExampleScenario.node[11].nic.mac1609_4 	TooLittleTime 	0
scalar IntersectionExampleScenario.node[11].nic.mac1609_4 	TimesIntoBackoff 	0
scalar IntersectionExampleScenario.node[11].nic.mac1609_4 	SlotsBackoff 	0
scalar IntersectionExampleScenario.node[11].nic.mac1609_4 	NumInternalContention 	0
scalar IntersectionExampleScenario.node[11].nic.mac1609_4 	totalBusyTime 	0
scalar IntersectionExampleScenario.node[11].veinsmobility 	startTime 	20.25
scalar IntersectionExampleScenario.node[11].veinsmobility 	totalTime 	86.25
scalar IntersectionExampleScenario.node[11].veinsmobility 	stopTime 	106.75
scalar IntersectionExampleScenario.node[11].veinsmobility 	minSpeed 	0
scalar IntersectionExampleScenario.node[11].veinsmobility 	maxSpeed 	16
scalar IntersectionExampleScenario.node[11].veinsmobility 	totalDistance 	518.6101972349
scalar IntersectionExampleScenario.node[11].veinsmobility 	totalCO2Emission 	176.92598008359
scalar IntersectionExampleScenario.node[9].appl 	VehicleRemoved 	0
scalar IntersectionExampleScenario.node[9].appl 	ArrivedAtDest 	1
scalar IntersectionExampleScenario.node[9].appl 	IntersectionEnterTime 	18
scalar IntersectionExampleScenario.node[9].appl 	IntersectionExitTime 	92.50736236517
scalar IntersectionExampleScenario.node[9].appl 	NumberOfCollisions 	0
scalar IntersectionExampleScenario.node[9].nic.phy80211p 	busyTime 	0
scalar IntersectionExampleScenario.node[9].nic.mac1609_4 	ReceivedUnicastPackets 	0
scalar IntersectionExampleScenario.node[9].nic.mac1609_4 	ReceivedBroadcasts 	0
scalar IntersectionExampleScenario.node[9].nic.mac1609_4 	SentPackets 	0
scalar IntersectionExampleScenario.node[9].nic.mac1609_4 	SNIRLostPackets 	0
scalar IntersectionExampleScenario.node[9].nic.mac1609_4 	RXTXLostPackets 	0
scalar IntersectionExampleScenario.node[9].nic.mac1609_4 	TotalLostPackets 	0
scalar IntersectionExampleScenario.node[9].nic.mac1609_4 	DroppedPacketsInMac 	0
scalar IntersectionExampleScenario.node[9].nic.mac1609_4 	TooLittleTime 	0
scalar IntersectionExampleScenario.node[9].nic.mac1609_4 	TimesIntoBackoff 	0
scalar IntersectionExampleScenario.node[9].nic.mac1609_4 	SlotsBackoff 	0
scalar IntersectionExampleScenario.node[9].nic.mac1609_4 	NumInternalContention 	0
scalar IntersectionExampleScenario.node[9].nic.mac1609_4 	totalBusyTime 	0
scalar IntersectionExampleScenario.node[9].veinsmobility 	startTime 	18
scalar IntersectionExampleScenario.node[9].veinsmobility 	totalTime 	90
scalar IntersectionExampleScenario.node[9].veinsmobility 	stopTime 	108.25
scalar IntersectionExampleScenario.node[9].veinsmobility 	minSpeed 	0
scalar IntersectionExampleScenario.node[9].veinsmobility 	maxSpeed 	15.747110366821
scalar IntersectionExampleScenario.node[9].veinsmobility 	totalDistance 	552.28171539307
scalar IntersectionExampleScenario.node[9].veinsmobility 	totalCO2Emission 	193.98742441095
scalar IntersectionExampleScenario.node[10].appl 	VehicleRemoved 	0
scalar IntersectionExampleScenario.node[10].appl 	ArrivedAtDest 	1
scalar IntersectionExampleScenario.node[10].appl 	IntersectionEnterTime 	19.5
scalar IntersectionExampleScenario.node[10].appl 	IntersectionExitTime 	95.279139291175
scalar IntersectionExampleScenario.node[10].appl 	NumberOfCollisions 	0
scalar IntersectionExampleScenario.node[10].nic.phy80211p 	busyTime 	0
scalar IntersectionExampleScenario.node[10].nic.mac1609_4 	ReceivedUnicastPackets 	0
scalar IntersectionExampleScenario.node[10].nic.mac1609_4 	ReceivedBroadcasts 	0
scalar IntersectionExampleScenario.node[10].nic.mac1609_4 	SentPackets 	0
scalar IntersectionExampleScenario.node[10].nic.mac1609_4 	SNIRLostPackets 	0
scalar IntersectionExampleScenario.node[10].nic.mac1609_4 	RXTXLostPackets 	0
scalar IntersectionExampleScenario.node[10].nic.mac1609_4 	TotalLostPackets 	0
scalar IntersectionExampleScenario.node[10].nic.mac1609_4 	DroppedPacketsInMac 	0
scalar IntersectionExampleScenario.node[10].nic.mac1609_4 	TooLittleTime 	0
scalar IntersectionExampleScenario.node[10].nic.mac1609_4 	TimesIntoBackoff 	0
scalar IntersectionExampleScenario.node[10].nic.mac1609_4 	SlotsBackoff 	0
scalar IntersectionExampleScenario.node[10].nic.mac1609_4 	NumInternalContention 	0
scalar IntersectionExampleScenario.node[10].nic.mac1609_4 	totalBusyTime 	0
scalar IntersectionExampleScenario.node[10].veinsmobility 	startTime 	19.5
scalar IntersectionExampleScenario.node[10].veinsmobility 	totalTime 	92.75
scalar IntersectionExampleScenario.node[10].veinsmobility 	stopTime 	112.5
scalar IntersectionExampleScenario.node[10].veinsmobility 	minSpeed 	0
scalar IntersectionExampleScenario.node[10].veinsmobility 	maxSpeed 	15.25
scalar IntersectionExampleScenario.node[10].veinsmobility 	totalDistance 	565.77839828307
scalar IntersectionExampleScenario.node[10].veinsmobility 	totalCO2Emission 	190.08965257089
scalar IntersectionExampleScenario.node[18].appl 	VehicleRemoved 	0
scalar IntersectionExampleScenario.node[18].appl 	ArrivedAtDest 	1
scalar IntersectionExampleScenario.node[18].appl 	IntersectionEnterTime 	47.25
scalar IntersectionExampleScenario.node[18].appl 	IntersectionExitTime 	97.105378488428
scalar IntersectionExampleScenario.node[18].appl 	NumberOfCollisions 	0
scalar IntersectionExampleScenario.node[18].nic.phy80211p 	busyTime 	0
scalar IntersectionExampleScenario.node[18].nic.mac1609_4 	ReceivedUnicastPackets 	0
scalar IntersectionExampleScenario.node[18].nic.mac1609_4 	ReceivedBroadcasts 	0
scalar IntersectionExampleScenario.node[18].nic.mac1609_4 	SentPackets 	0
scalar IntersectionExampleScenario.node[18].nic.mac1609_4 	SNIRLostPackets 	0
scalar IntersectionExampleScenario.node[18].nic.mac1609_4 	RXTXLostPackets 	0
scalar IntersectionExampleScenario.node[18].nic.mac1609_4 	TotalLostPackets 	0
scalar IntersectionExampleScenario.node[18].nic.mac1609_4 	DroppedPacketsInMac 	0
scalar IntersectionExampleScenario.node[18].nic.mac1609_4 	TooLittleTime 	0
scalar IntersectionExampleScenario.node[18].nic.mac1609_4 	TimesIntoBackoff 	0
scalar IntersectionExampleScenario.node[18].nic.mac1609_4 	SlotsBackoff 	0
scalar IntersectionExampleScenario.node[18].nic.mac1609_4 	NumInternalContention 	0
scalar IntersectionExampleScenario.node[18].nic.mac1609_4 	totalBusyTime 	0
scalar IntersectionExampleScenario.node[18].veinsmobility 	startTime 	47.25
scalar IntersectionExampleScenario.node[18].veinsmobility 	totalTime 	66
scalar IntersectionExampleScenario.node[18].veinsmobility 	stopTime 	113.5
scalar IntersectionExampleScenario.node[18].veinsmobility 	minSpeed 	0
scalar IntersectionExampleScenario.node[18].veinsmobility 	maxSpeed 	15.5
scalar IntersectionExampleScenario.node[18].veinsmobility 	totalDistance 	552.67874908447
scalar IntersectionExampleScenario.node[18].veinsmobility 	totalCO2Emission 	156.77616616604
scalar IntersectionExampleScenario.node[20].appl 	VehicleRemoved 	0
scalar IntersectionExampleScenario.node[20].appl 	ArrivedAtDest 	1
scalar IntersectionExampleScenario.node[20].appl 	IntersectionEnterTime 	51.75
scalar IntersectionExampleScenario.node[20].appl 	IntersectionExitTime 	99.811704408989
scalar IntersectionExampleScenario.node[20].appl 	NumberOfCollisions 	0
scalar IntersectionExampleScenario.node[20].nic.phy80211p 	busyTime 	0
scalar IntersectionExampleScenario.node[20].nic.mac1609_4 	ReceivedUnicastPackets 	0
scalar IntersectionExampleScenario.node[20].nic.mac1609_4 	ReceivedBroadcasts 	0
scalar IntersectionExampleScenario.node[20].nic.mac1609_4 	SentPackets 	0
scalar IntersectionExampleScenario.node[20].nic.mac1609_4 	SNIRLostPackets 	0
scalar IntersectionExampleScenario.node[20].nic.mac1609_4 	RXTXLostPackets 	0
scalar IntersectionExampleScenario.node[20].nic.mac1609_4 	TotalLostPackets 	0
scalar IntersectionExampleScenario.node[20].nic.mac1609_4 	DroppedPacketsInMac 	0
scalar IntersectionExampleScenario.node[20].nic.mac1609_4 	TooLittleTime 	0
scalar IntersectionExampleScenario.node[20].nic.mac1609_4 	TimesIntoBackoff 	0
scalar IntersectionExampleScenario.node[20].nic.mac1609_4 	SlotsBackoff 	0
scalar IntersectionExampleScenario.node[20].nic.mac1609_4 	NumInternalContention 	0
scalar IntersectionExampleScenario.node[20].nic.mac1609_4 	totalBusyTime 	0
scalar IntersectionExampleScenario.node[20].veinsmobility 	startTime 	51.75
scalar IntersectionExampleScenario.node[20].veinsmobility 	totalTime 	65.25
scalar IntersectionExampleScenario.node[20].veinsmobility 	stopTime 	117.25
scalar IntersectionExampleScenario.node[20].veinsmobility 	minSpeed 	0
scalar IntersectionExampleScenario.node[20].veinsmobility 	maxSpeed 	14.39999961853
scalar IntersectionExampleScenario.node[20].veinsmobility 	totalDistance 	551.90970611572
scalar IntersectionExampleScenario.node[20].veinsmobility 	totalCO2Emission 	143.80056681546
scalar IntersectionExampleScenario.node[24].appl 	VehicleRemoved 	0
scalar IntersectionExampleScenario.node[24].appl 	ArrivedAtDest 	1
scalar IntersectionExampleScenario.node[24].appl 	IntersectionEnterTime 	74.25
scalar IntersectionExampleScenario.node[24].appl 	IntersectionExitTime 	102.33038051828
scalar IntersectionExampleScenario.node[24].appl 	NumberOfCollisions 	0
scalar IntersectionExampleScenario.node[24].nic.phy80211p 	busyTime 	0
scalar IntersectionExampleScenario.node[24].nic.mac1609_4 	ReceivedUnicastPackets 	0
scalar IntersectionExampleScenario.node[24].nic.mac1609_4 	ReceivedBroadcasts 	0
scalar IntersectionExampleScenario.node[24].nic.mac1609_4 	SentPackets 	0
scalar IntersectionExampleScenario.node[24].nic.mac1609_4 	SNIRLostPackets 	0
scalar IntersectionExampleScenario.node[24].nic.mac1609_4 	RXTXLostPackets 	0
scalar IntersectionExampleScenario.node[24].nic.mac1609_4 	TotalLostPackets 	0
scalar IntersectionExampleScenario.node[24].nic.mac1609_4 	DroppedPacketsInMac 	0
scalar IntersectionExampleScenario.node[24].nic.mac1609_4 	TooLittleTime 	0
scalar IntersectionExampleScenario.node[24].nic.mac1609_4 	TimesIntoBackoff 	0
scalar IntersectionExampleScenario.node[24].nic.mac1609_4 	SlotsBackoff 	0
scalar IntersectionExampleScenario.node[24].nic.mac1609_4 	NumInternalContention 	0
scalar IntersectionExampleScenario.node[24].nic.mac1609_4 	totalBusyTime 	0
scalar IntersectionExampleScenario.node[24].veinsmobility 	startTime 	74.25
scalar IntersectionExampleScenario.node[24].veinsmobility 	totalTime 	45
scalar IntersectionExampleScenario.node[24].veinsmobility 	stopTime 	119.5
scalar IntersectionExampleScenario.node[24].veinsmobility 	minSpeed 	5.6500000953674
scalar IntersectionExampleScenario.node[24].veinsmobility 	maxSpeed 	15.25
scalar IntersectionExampleScenario.node[24].veinsmobility 	totalDistance 	544.11152673358
scalar IntersectionExampleScenario.node[24].veinsmobility 	totalCO2Emission 	142.98346427332
scalar IntersectionExampleScenario.node[25].appl 	VehicleRemoved 	0
scalar IntersectionExampleScenario.node[25].appl 	ArrivedAtDest 	1
scalar IntersectionExampleScenario.node[25].appl 	IntersectionEnterTime 	80
scalar IntersectionExampleScenario.node[25].appl 	IntersectionExitTime 	104.83615675292
scalar IntersectionExampleScenario.node[25].appl 	NumberOfCollisions 	0
scalar IntersectionExampleScenario.node[25].nic.phy80211p 	busyTime 	0
scalar IntersectionExampleScenario.node[25].nic.mac1609_4 	ReceivedUnicastPackets 	0
scalar IntersectionExampleScenario.node[25].nic.mac1609_4 	ReceivedBroadcasts 	0
scalar IntersectionExampleScenario.node[25].nic.mac1609_4 	SentPackets 	0
scalar IntersectionExampleScenario.node[25].nic.mac1609_4 	SNIRLostPackets 	0
scalar IntersectionExampleScenario.node[25].nic.mac1609_4 	RXTXLostPackets 	0
scalar IntersectionExampleScenario.node[25].nic.mac1609_4 	TotalLostPackets 	0
scalar IntersectionExampleScenario.node[25].nic.mac1609_4 	DroppedPacketsInMac 	0
scalar IntersectionExampleScenario.node[25].nic.mac1609_4 	TooLittleTime 	0
scalar IntersectionExampleScenario.node[25].nic.mac1609_4 	TimesIntoBackoff 	0
scalar IntersectionExampleScenario.node[25].nic.mac1609_4 	SlotsBackoff 	0
scalar IntersectionExampleScenario.node[25].nic.mac1609_4 	NumInternalContention 	0
scalar IntersectionExampleScenario.node[25].nic.mac1609_4 	totalBusyTime 	0
scalar IntersectionExampleScenario.node[25].veinsmobility 	startTime 	80
scalar IntersectionExampleScenario.node[25].veinsmobility 	totalTime 	41.25
scalar IntersectionExampleScenario.node[25].veinsmobility 	stopTime 	121.5
scalar IntersectionExampleScenario.node[25].veinsmobility 	minSpeed 	5.6500000953674
scalar IntersectionExampleScenario.node[25].veinsmobility 	maxSpeed 	15.461810112
scalar IntersectionExampleScenario.node[25].veinsmobility 	totalDistance 	543.21434290393
scalar IntersectionExampleScenario.node[25].veinsmobility 	totalCO2Emission 	125.68948182948
scalar IntersectionExampleScenario.node[28].appl 	VehicleRemoved 	0
scalar IntersectionExampleScenario.node[28].appl 	ArrivedAtDest 	1
scalar IntersectionExampleScenario.node[28].appl 	IntersectionEnterTime 	85.25
scalar IntersectionExampleScenario.node[28].appl 	IntersectionExitTime 	107.06372583966
scalar IntersectionExampleScenario.node[28].appl 	NumberOfCollisions 	0
scalar IntersectionExampleScenario.node[28].nic.phy80211p 	busyTime 	0
scalar IntersectionExampleScenario.node[28].nic.mac1609_4 	ReceivedUnicastPackets 	0
scalar IntersectionExampleScenario.node[28].nic.mac1609_4 	ReceivedBroadcasts 	0
scalar IntersectionExampleScenario.node[28].nic.mac1609_4 	SentPackets 	0
scalar IntersectionExampleScenario.node[28].nic.mac1609_4 	SNIRLostPackets 	0
scalar IntersectionExampleScenario.node[28].nic.mac1609_4 	RXTXLostPackets 	0
scalar IntersectionExampleScenario.node[28].nic.mac1609_4 	TotalLostPackets 	0
scalar IntersectionExampleScenario.node[28].nic.mac1609_4 	DroppedPacketsInMac 	0
scalar IntersectionExampleScenario.node[28].nic.mac1609_4 	TooLittleTime 	0
scalar IntersectionExampleScenario.node[28].nic.mac1609_4 	TimesIntoBackoff 	0
scalar IntersectionExampleScenario.node[28].nic.mac1609_4 	SlotsBackoff 	0
scalar IntersectionExampleScenario.node[28].nic.mac1609_4 	NumInternalContention 	0
scalar IntersectionExampleScenario.node[28].nic.mac1609_4 	totalBusyTime 	0
scalar IntersectionExampleScenario.node[28].veinsmobility 	startTime 	85.25
scalar IntersectionExampleScenario.node[28].veinsmobility 	totalTime 	37.75
scalar IntersectionExampleScenario.node[28].veinsmobility 	stopTime 	123.25
scalar IntersectionExampleScenario.node[28].veinsmobility 	minSpeed 	5.6500000953674
scalar IntersectionExampleScenario.node[28].veinsmobility 	maxSpeed 	16.20693397522
scalar IntersectionExampleScenario.node[28].veinsmobility 	totalDistance 	517.25269109521
scalar IntersectionExampleScenario.node[28].veinsmobility 	totalCO2Emission 	128.61138668136
scalar IntersectionExampleScenario.node[26].appl 	VehicleRemoved 	0
scalar IntersectionExampleScenario.node[26].appl 	ArrivedAtDest 	1
scalar IntersectionExampleScenario.node[26].appl 	IntersectionEnterTime 	82.5
scalar IntersectionExampleScenario.node[26].appl 	IntersectionExitTime 	108.83739095624
scalar IntersectionExampleScenario.node[26].appl 	NumberOfCollisions 	0
scalar IntersectionExampleScenario.node[26].nic.phy80211p 	busyTime 	0
scalar IntersectionExampleScenario.node[26].nic.mac1609_4 	ReceivedUnicastPackets 	0
scalar IntersectionExampleScenario.node[26].nic.mac1609_4 	ReceivedBroadcasts 	0
scalar IntersectionExampleScenario.node[26].nic.mac1609_4 	SentPackets 	0
scalar IntersectionExampleScenario.node[26].nic.mac1609_4 	SNIRLostPackets 	0
scalar IntersectionExampleScenario.node[26].nic.mac1609_4 	RXTXLostPackets 	0
scalar IntersectionExampleScenario.node[26].nic.mac1609_4 	TotalLostPackets 	0
scalar IntersectionExampleScenario.node[26].nic.mac1609_4 	DroppedPacketsInMac 	0
scalar IntersectionExampleScenario.node[26].nic.mac1609_4 	TooLittleTime 	0
scalar IntersectionExampleScenario.node[26].nic.mac1609_4 	TimesIntoBackoff 	0
scalar IntersectionExampleScenario.node[26].nic.mac1609_4 	SlotsBackoff 	0
scalar IntersectionExampleScenario.node[26].nic.mac1609_4 	NumInternalContention 	0
scalar IntersectionExampleScenario.node[26].nic.mac1609_4 	totalBusyTime 	0
scalar IntersectionExampleScenario.node[26].veinsmobility 	startTime 	82.5
scalar IntersectionExampleScenario.node[26].veinsmobility 	totalTime 	42.5
scalar IntersectionExampleScenario.node[26].veinsmobility 	stopTime 	125.25
scalar IntersectionExampleScenario.node[26].veinsmobility 	minSpeed 	5.6500000953674
scalar IntersectionExampleScenario.node[26].veinsmobility 	maxSpeed 	15.73699760437
scalar IntersectionExampleScenario.node[26].veinsmobility 	totalDistance 	565.80690940456
scalar IntersectionExampleScenario.node[26].veinsmobility 	totalCO2Emission 	133.40394207773
scalar IntersectionExampleScenario.node[27].appl 	VehicleRemoved 	0
scalar IntersectionExampleScenario.node[27].appl 	ArrivedAtDest 	1
scalar IntersectionExampleScenario.node[27].appl 	IntersectionEnterTime 	84
scalar IntersectionExampleScenario.node[27].appl 	IntersectionExitTime 	110.03912815356
scalar IntersectionExampleScenario.node[27].appl 	NumberOfCollisions 	0
scalar IntersectionExampleScenario.node[27].nic.phy80211p 	busyTime 	0
scalar IntersectionExampleScenario.node[27].nic.mac1609_4 	ReceivedUnicastPackets 	0
scalar IntersectionExampleScenario.node[27].nic.mac1609_4 	ReceivedBroadcasts 	0
scalar IntersectionExampleScenario.node[27].nic.mac1609_4 	SentPackets 	0
scalar IntersectionExampleScenario.node[27].nic.mac1609_4 	SNIRLostPackets 	0
scalar IntersectionExampleScenario.node[27].nic.mac1609_4 	RXTXLostPackets 	0
scalar IntersectionExampleScenario.node[27].nic.mac1609_4 	TotalLostPackets 	0
scalar IntersectionExampleScenario.node[27].nic.mac1609_4 	DroppedPacketsInMac 	0
scalar IntersectionExampleScenario.node[27].nic.mac1609_4 	TooLittleTime 	0
scalar IntersectionExampleScenario.node[27].nic.mac1609_4 	TimesIntoBackoff 	0
scalar IntersectionExampleScenario.node[27].nic.mac1609_4 	SlotsBackoff 	0
scalar IntersectionExampleScenario.node[27].nic.mac1609_4 	NumInternalContention 	0
scalar IntersectionExampleScenario.node[27].nic.mac1609_4 	totalBusyTime 	0
scalar IntersectionExampleScenario.node[27].veinsmobility 	startTime 	84
scalar IntersectionExampleScenario.node[27].veinsmobility 	totalTime 	41.75
scalar IntersectionExampleScenario.node[27].veinsmobility 	stopTime 	126
scalar IntersectionExampleScenario.node[27].veinsmobility 	minSpeed 	5.6500000953674
scalar IntersectionExampleScenario.node[27].veinsmobility 	maxSpeed 	16.125
scalar IntersectionExampleScenario.node[27].veinsmobility 	totalDistance 	582.00858306885
scalar IntersectionExampleScenario.node[27].veinsmobility 	totalCO2Emission 	125.7953731552
scalar IntersectionExampleScenario.node[31].appl 	VehicleRemoved 	0
scalar IntersectionExampleScenario.node[31].appl 	ArrivedAtDest 	1
scalar IntersectionExampleScenario.node[31].appl 	IntersectionEnterTime 	98
scalar IntersectionExampleScenario.node[31].appl 	IntersectionExitTime 	120.7638754248
scalar IntersectionExampleScenario.node[31].appl 	NumberOfCollisions 	0
scalar IntersectionExampleScenario.node[31].nic.phy80211p 	busyTime 	0
scalar IntersectionExampleScenario.node[31].nic.mac1609_4 	ReceivedUnicastPackets 	0
scalar IntersectionExampleScenario.node[31].nic.mac1609_4 	ReceivedBroadcasts 	0
scalar IntersectionExampleScenario.node[31].nic.mac1609_4 	SentPackets 	0
scalar IntersectionExampleScenario.node[31].nic.mac1609_4 	SNIRLostPackets 	0
scalar IntersectionExampleScenario.node[31].nic.mac1609_4 	RXTXLostPackets 	0
scalar IntersectionExampleScenario.node[31].nic.mac1609_4 	TotalLostPackets 	0
scalar IntersectionExampleScenario.node[31].nic.mac1609_4 	DroppedPacketsInMac 	0
scalar IntersectionExampleScenario.node[31].nic.mac1609_4 	TooLittleTime 	0
scalar IntersectionExampleScenario.node[31].nic.mac1609_4 	TimesIntoBackoff 	0
scalar IntersectionExampleScenario.node[31].nic.mac1609_4 	SlotsBackoff 	0
scalar IntersectionExampleScenario.node[31].nic.mac1609_4 	NumInternalContention 	0
scalar IntersectionExampleScenario.node[31].nic.mac1609_4 	totalBusyTime 	0
scalar IntersectionExampleScenario.node[31].veinsmobility 	startTime 	98
scalar IntersectionExampleScenario.node[31].veinsmobility 	totalTime 	38.5
scalar IntersectionExampleScenario.node[31].veinsmobility 	stopTime 	136.75
scalar IntersectionExampleScenario.node[31].veinsmobility 	minSpeed 	5.6500000953674
scalar IntersectionExampleScenario.node[31].veinsmobility 	maxSpeed 	16.27499961853
scalar IntersectionExampleScenario.node[31].veinsmobility 	totalDistance 	551.24840674996
scalar IntersectionExampleScenario.node[31].veinsmobility 	totalCO2Emission 	126.82643870575
scalar IntersectionExampleScenario.node[22].appl 	VehicleRemoved 	0
scalar IntersectionExampleScenario.node[22].appl 	ArrivedAtDest 	1
scalar IntersectionExampleScenario.node[22].appl 	IntersectionEnterTime 	57
scalar IntersectionExampleScenario.node[22].appl 	IntersectionExitTime 	129.31288623391
scalar IntersectionExampleScenario.node[22].appl 	NumberOfCollisions 	0
scalar IntersectionExampleScenario.node[22].nic.phy80211p 	busyTime 	0
scalar IntersectionExampleScenario.node[22].nic.mac1609_4 	ReceivedUnicastPackets 	0
scalar IntersectionExampleScenario.node[22].nic.mac1609_4 	ReceivedBroadcasts 	0
scalar IntersectionExampleScenario.node[22].nic.mac1609_4 	SentPackets 	0
scalar IntersectionExampleScenario.node[22].nic.mac1609_4 	SNIRLostPackets 	0
scalar IntersectionExampleScenario.node[22].nic.mac1609_4 	RXTXLostPackets 	0
scalar IntersectionExampleScenario.node[22].nic.mac1609_4 	TotalLostPackets 	0
scalar IntersectionExampleScenario.node[22].nic.mac1609_4 	DroppedPacketsInMac 	0
scalar IntersectionExampleScenario.node[22].nic.mac1609_4 	TooLittleTime 	0
scalar IntersectionExampleScenario.node[22].nic.mac1609_4 	TimesIntoBackoff 	0
scalar IntersectionExampleScenario.node[22].nic.mac1609_4 	SlotsBackoff 	0
scalar IntersectionExampleScenario.node[22].nic.mac1609_4 	NumInternalContention 	0
scalar IntersectionExampleScenario.node[22].nic.mac1609_4 	totalBusyTime 	0
scalar IntersectionExampleScenario.node[22].veinsmobility 	startTime 	57
scalar IntersectionExampleScenario.node[22].veinsmobility 	totalTime 	88
scalar IntersectionExampleScenario.node[22].veinsmobility 	stopTime 	145.25
scalar IntersectionExampleScenario.node[22].veinsmobility 	minSpeed 	0
scalar IntersectionExampleScenario.node[22].veinsmobility 	maxSpeed 	16
scalar IntersectionExampleScenario.node[22].veinsmobility 	totalDistance 	553.70684814453
scalar IntersectionExampleScenario.node[22].veinsmobility 	totalCO2Emission 	182.1737587032
scalar IntersectionExampleScenario.node[14].appl 	VehicleRemoved 	0
scalar IntersectionExampleScenario.node[14].appl 	ArrivedAtDest 	1
scalar IntersectionExampleScenario.node[14].appl 	IntersectionEnterTime 	29.75
scalar IntersectionExampleScenario.node[14].appl 	IntersectionExitTime 	129.32521998946
scalar IntersectionExampleScenario.node[14].appl 	NumberOfCollisions 	0
scalar IntersectionExampleScenario.node[14].nic.phy80211p 	busyTime 	0
scalar IntersectionExampleScenario.node[14].nic.mac1609_4 	ReceivedUnicastPackets 	0
scalar IntersectionExampleScenario.node[14].nic.mac1609_4 	ReceivedBroadcasts 	0
scalar IntersectionExampleScenario.node[14].nic.mac1609_4 	SentPackets 	0
scalar IntersectionExampleScenario.node[14].nic.mac1609_4 	SNIRLostPackets 	0
scalar IntersectionExampleScenario.node[14].nic.mac1609_4 	RXTXLostPackets 	0
scalar IntersectionExampleScenario.node[14].nic.mac1609_4 	TotalLostPackets 	0
scalar IntersectionExampleScenario.node[14].nic.mac1609_4 	DroppedPacketsInMac 	0
scalar IntersectionExampleScenario.node[14].nic.mac1609_4 	TooLittleTime 	0
scalar IntersectionExampleScenario.node[14].nic.mac1609_4 	TimesIntoBackoff 	0
scalar IntersectionExampleScenario.node[14].nic.mac1609_4 	SlotsBackoff 	0
scalar IntersectionExampleScenario.node[14].nic.mac1609_4 	NumInternalContention 	0
scalar IntersectionExampleScenario.node[14].nic.mac1609_4 	totalBusyTime 	0
scalar IntersectionExampleScenario.node[14].veinsmobility 	startTime 	29.75
scalar IntersectionExampleScenario.node[14].veinsmobility 	totalTime 	116.25
scalar IntersectionExampleScenario.node[14].veinsmobility 	stopTime 	146.25
scalar IntersectionExampleScenario.node[14].veinsmobility 	minSpeed 	0
scalar IntersectionExampleScenario.node[14].veinsmobility 	maxSpeed 	15.02499961853
scalar IntersectionExampleScenario.node[14].veinsmobility 	totalDistance 	555.93235124698
scalar IntersectionExampleScenario.node[14].veinsmobility 	totalCO2Emission 	201.53697853817
scalar IntersectionExampleScenario.node[23].appl 	VehicleRemoved 	0
scalar IntersectionExampleScenario.node[23].appl 	ArrivedAtDest 	1
scalar IntersectionExampleScenario.node[23].appl 	IntersectionEnterTime 	71.25
scalar IntersectionExampleScenario.node[23].appl 	IntersectionExitTime 	130.53740073973
scalar IntersectionExampleScenario.node[23].appl 	NumberOfCollisions 	0
scalar IntersectionExampleScenario.node[23].nic.phy80211p 	busyTime 	0
scalar IntersectionExampleScenario.node[23].nic.mac1609_4 	ReceivedUnicastPackets 	0
scalar IntersectionExampleScenario.node[23].nic.mac1609_4 	ReceivedBroadcasts 	0
scalar IntersectionExampleScenario.node[23].nic.mac1609_4 	SentPackets 	0
scalar IntersectionExampleScenario.node[23].nic.mac1609_4 	SNIRLostPackets 	0
scalar IntersectionExampleScenario.node[23].nic.mac1609_4 	RXTXLostPackets 	0
scalar IntersectionExampleScenario.node[23].nic.mac1609_4 	TotalLostPackets 	0
scalar IntersectionExampleScenario.node[23].nic.mac1609_4 	DroppedPacketsInMac 	0
scalar IntersectionExampleScenario.node[23].nic.mac1609_4 	TooLittleTime 	0
scalar IntersectionExampleScenario.node[23].nic.mac1609_4 	TimesIntoBackoff 	0
scalar IntersectionExampleScenario.node[23].nic.mac1609_4 	SlotsBackoff 	0
scalar IntersectionExampleScenario.node[23].nic.mac1609_4 	NumInternalContention 	0
scalar IntersectionExampleScenario.node[23].nic.mac1609_4 	totalBusyTime 	0
scalar IntersectionExampleScenario.node[23].veinsmobility 	startTime 	71.25
scalar IntersectionExampleScenario.node[23].veinsmobility 	totalTime 	76.25
scalar IntersectionExampleScenario.node[23].veinsmobility 	stopTime 	147.75
scalar IntersectionExampleScenario.node[23].veinsmobility 	minSpeed 	0
scalar IntersectionExampleScenario.node[23].veinsmobility 	maxSpeed 	15.224393844604
scalar IntersectionExampleScenario.node[23].veinsmobility 	totalDistance 	544.88924444669
scalar IntersectionExampleScenario.node[23].veinsmobility 	totalCO2Emission 	166.59097226135
scalar IntersectionExampleScenario.node[21].appl 	VehicleRemoved 	0
scalar IntersectionExampleScenario.node[21].appl 	ArrivedAtDest 	1
scalar IntersectionExampleScenario.node[21].appl 	IntersectionEnterTime 	52.75
scalar IntersectionExampleScenario.node[21].appl 	IntersectionExitTime 	132.51408498504
scalar IntersectionExampleScenario.node[21].appl 	NumberOfCollisions 	0
scalar IntersectionExampleScenario.node[21].nic.phy80211p 	busyTime 	0
scalar IntersectionExampleScenario.node[21].nic.mac1609_4 	ReceivedUnicastPackets 	0
scalar IntersectionExampleScenario.node[21].nic.mac1609_4 	ReceivedBroadcasts 	0
scalar IntersectionExampleScenario.node[21].nic.mac1609_4 	SentPackets 	0
scalar IntersectionExampleScenario.node[21].nic.mac1609_4 	SNIRLostPackets 	0
scalar IntersectionExampleScenario.node[21].nic.mac1609_4 	RXTXLostPackets 	0
scalar IntersectionExampleScenario.node[21].nic.mac1609_4 	TotalLostPackets 	0
scalar IntersectionExampleScenario.node[21].nic.mac1609_4 	DroppedPacketsInMac 	0
scalar IntersectionExampleScenario.node[21].nic.mac1609_4 	TooLittleTime 	0
scalar IntersectionExampleScenario.node[21].nic.mac1609_4 	TimesIntoBackoff 	0
scalar IntersectionExampleScenario.node[21].nic.mac1609_4 	SlotsBackoff 	0
scalar IntersectionExampleScenario.node[21].nic.mac1609_4 	NumInternalContention 	0
scalar IntersectionExampleScenario.node[21].nic.mac1609_4 	totalBusyTime 	0
scalar IntersectionExampleScenario.node[21].veinsmobility 	startTime 	52.75
scalar IntersectionExampleScenario.node[21].veinsmobility 	totalTime 	96.25
scalar IntersectionExampleScenario.node[21].veinsmobility 	stopTime 	149.25
scalar IntersectionExampleScenario.node[21].veinsmobility 	minSpeed 	0
scalar IntersectionExampleScenario.node[21].veinsmobility 	maxSpeed 	15.64999961853
scalar IntersectionExampleScenario.node[21].veinsmobility 	totalDistance 	550.25484575014
scalar IntersectionExampleScenario.node[21].veinsmobility 	totalCO2Emission 	185.76584253289
scalar IntersectionExampleScenario.node[32].appl 	VehicleRemoved 	0
scalar IntersectionExampleScenario.node[32].appl 	ArrivedAtDest 	1
scalar IntersectionExampleScenario.node[32].appl 	IntersectionEnterTime 	99
scalar IntersectionExampleScenario.node[32].appl 	IntersectionExitTime 	133.83769199552
scalar IntersectionExampleScenario.node[32].appl 	NumberOfCollisions 	0
scalar IntersectionExampleScenario.node[32].nic.phy80211p 	busyTime 	0
scalar IntersectionExampleScenario.node[32].nic.mac1609_4 	ReceivedUnicastPackets 	0
scalar IntersectionExampleScenario.node[32].nic.mac1609_4 	ReceivedBroadcasts 	0
scalar IntersectionExampleScenario.node[32].nic.mac1609_4 	SentPackets 	0
scalar IntersectionExampleScenario.node[32].nic.mac1609_4 	SNIRLostPackets 	0
scalar IntersectionExampleScenario.node[32].nic.mac1609_4 	RXTXLostPackets 	0
scalar IntersectionExampleScenario.node[32].nic.mac1609_4 	TotalLostPackets 	0
scalar IntersectionExampleScenario.node[32].nic.mac1609_4 	DroppedPacketsInMac 	0
scalar IntersectionExampleScenario.node[32].nic.mac1609_4 	TooLittleTime 	0
scalar IntersectionExampleScenario.node[32].nic.mac1609_4 	TimesIntoBackoff 	0
scalar IntersectionExampleScenario.node[32].nic.mac1609_4 	SlotsBackoff 	0
scalar IntersectionExampleScenario.node[32].nic.mac1609_4 	NumInternalContention 	0
scalar IntersectionExampleScenario.node[32].nic.mac1609_4 	totalBusyTime 	0
scalar IntersectionExampleScenario.node[32].veinsmobility 	startTime 	99
scalar IntersectionExampleScenario.node[32].veinsmobility 	totalTime 	51
scalar IntersectionExampleScenario.node[32].veinsmobility 	stopTime 	150.25
scalar IntersectionExampleScenario.node[32].veinsmobility 	minSpeed 	0.97691965103149
scalar IntersectionExampleScenario.node[32].veinsmobility 	maxSpeed 	15.5
scalar IntersectionExampleScenario.node[32].veinsmobility 	totalDistance 	552.60099029541
scalar IntersectionExampleScenario.node[32].veinsmobility 	totalCO2Emission 	138.2227413148
scalar IntersectionExampleScenario.node[29].appl 	VehicleRemoved 	0
scalar IntersectionExampleScenario.node[29].appl 	ArrivedAtDest 	1
scalar IntersectionExampleScenario.node[29].appl 	IntersectionEnterTime 	85.75
scalar IntersectionExampleScenario.node[29].appl 	IntersectionExitTime 	134.09903689672
scalar IntersectionExampleScenario.node[29].appl 	NumberOfCollisions 	0
scalar IntersectionExampleScenario.node[29].nic.phy80211p 	busyTime 	0
scalar IntersectionExampleScenario.node[29].nic.mac1609_4 	ReceivedUnicastPackets 	0
scalar IntersectionExampleScenario.node[29].nic.mac1609_4 	ReceivedBroadcasts 	0
scalar IntersectionExampleScenario.node[29].nic.mac1609_4 	SentPackets 	0
scalar IntersectionExampleScenario.node[29].nic.mac1609_4 	SNIRLostPackets 	0
scalar IntersectionExampleScenario.node[29].nic.mac1609_4 	RXTXLostPackets 	0
scalar IntersectionExampleScenario.node[29].nic.mac1609_4 	TotalLostPackets 	0
scalar IntersectionExampleScenario.node[29].nic.mac1609_4 	DroppedPacketsInMac 	0
scalar IntersectionExampleScenario.node[29].nic.mac1609_4 	TooLittleTime 	0
scalar IntersectionExampleScenario.node[29].nic.mac1609_4 	TimesIntoBackoff 	0
scalar IntersectionExampleScenario.node[29].nic.mac1609_4 	SlotsBackoff 	0
scalar IntersectionExampleScenario.node[29].nic.mac1609_4 	NumInternalContention 	0
scalar IntersectionExampleScenario.node[29].nic.mac1609_4 	totalBusyTime 	0
scalar IntersectionExampleScenario.node[29].veinsmobility 	startTime 	85.75
scalar IntersectionExampleScenario.node[29].veinsmobility 	totalTime 	65.25
scalar IntersectionExampleScenario.node[29].veinsmobility 	stopTime 	151.25
scalar IntersectionExampleScenario.node[29].veinsmobility 	minSpeed 	0
scalar IntersectionExampleScenario.node[29].veinsmobility 	maxSpeed 	15.026340484619
scalar IntersectionExampleScenario.node[29].veinsmobility 	totalDistance 	543.6219695597
scalar IntersectionExampleScenario.node[29].veinsmobility 	totalCO2Emission 	155.1051980042
scalar IntersectionExampleScenario.node[35].appl 	VehicleRemoved 	0
scalar IntersectionExampleScenario.node[35].appl 	ArrivedAtDest 	1
scalar IntersectionExampleScenario.node[35].appl 	IntersectionEnterTime 	106.25
scalar IntersectionExampleScenario.node[35].appl 	IntersectionExitTime 	135.27268786792
scalar IntersectionExampleScenario.node[35].appl 	NumberOfCollisions 	0
scalar IntersectionExampleScenario.node[35].nic.phy80211p 	busyTime 	0
scalar IntersectionExampleScenario.node[35].nic.mac1609_4 	ReceivedUnicastPackets 	0
scalar IntersectionExampleScenario.node[35].nic.mac1609_4 	ReceivedBroadcasts 	0
scalar IntersectionExampleScenario.node[35].nic.mac1609_4 	SentPackets 	0
scalar IntersectionExampleScenario.node[35].nic.mac1609_4 	SNIRLostPackets 	0
scalar IntersectionExampleScenario.node[35].nic.mac1609_4 	RXTXLostPackets 	0
scalar IntersectionExampleScenario.node[35].nic.mac1609_4 	TotalLostPackets 	0
scalar IntersectionExampleScenario.node[35].nic.mac1609_4 	DroppedPacketsInMac 	0
scalar IntersectionExampleScenario.node[35].nic.mac1609_4 	TooLittleTime 	0
scalar IntersectionExampleScenario.node[35].nic.mac1609_4 	TimesIntoBackoff 	0
scalar IntersectionExampleScenario.node[35].nic.mac1609_4 	SlotsBackoff 	0
scalar IntersectionExampleScenario.node[35].nic.mac1609_4 	NumInternalContention 	0
scalar IntersectionExampleScenario.node[35].nic.mac1609_4 	totalBusyTime 	0
scalar IntersectionExampleScenario.node[35].veinsmobility 	startTime 	106.25
scalar IntersectionExampleScenario.node[35].veinsmobility 	totalTime 	45.25
scalar IntersectionExampleScenario.node[35].veinsmobility 	stopTime 	151.75
scalar IntersectionExampleScenario.node[35].veinsmobility 	minSpeed 	4.6596732139587
scalar IntersectionExampleScenario.node[35].veinsmobility 	maxSpeed 	15.64999961853
scalar IntersectionExampleScenario.node[35].veinsmobility 	totalDistance 	550.07905785491
scalar IntersectionExampleScenario.node[35].veinsmobility 	totalCO2Emission 	137.41556548668
scalar IntersectionExampleScenario.node[39].appl 	VehicleRemoved 	0
scalar IntersectionExampleScenario.node[39].appl 	ArrivedAtDest 	1
scalar IntersectionExampleScenario.node[39].appl 	IntersectionEnterTime 	112
scalar IntersectionExampleScenario.node[39].appl 	IntersectionExitTime 	136.76448204336
scalar IntersectionExampleScenario.node[39].appl 	NumberOfCollisions 	0
scalar IntersectionExampleScenario.node[39].nic.phy80211p 	busyTime 	0
scalar IntersectionExampleScenario.node[39].nic.mac1609_4 	ReceivedUnicastPackets 	0
scalar IntersectionExampleScenario.node[39].nic.mac1609_4 	ReceivedBroadcasts 	0
scalar IntersectionExampleScenario.node[39].nic.mac1609_4 	SentPackets 	0
scalar IntersectionExampleScenario.node[39].nic.mac1609_4 	SNIRLostPackets 	0
scalar IntersectionExampleScenario.node[39].nic.mac1609_4 	RXTXLostPackets 	0
scalar IntersectionExampleScenario.node[39].nic.mac1609_4 	TotalLostPackets 	0
scalar IntersectionExampleScenario.node[39].nic.mac1609_4 	DroppedPacketsInMac 	0
scalar IntersectionExampleScenario.node[39].nic.mac1609_4 	TooLittleTime 	0
scalar IntersectionExampleScenario.node[39].nic.mac1609_4 	TimesIntoBackoff 	0
scalar IntersectionExampleScenario.node[39].nic.mac1609_4 	SlotsBackoff 	0
scalar IntersectionExampleScenario.node[39].nic.mac1609_4 	NumInternalContention 	0
scalar IntersectionExampleScenario.node[39].nic.mac1609_4 	totalBusyTime 	0
scalar IntersectionExampleScenario.node[39].veinsmobility 	startTime 	112
scalar IntersectionExampleScenario.node[39].veinsmobility 	totalTime 	39.75
scalar IntersectionExampleScenario.node[39].veinsmobility 	stopTime 	152
scalar IntersectionExampleScenario.node[39].veinsmobility 	minSpeed 	5.6500000953674
scalar IntersectionExampleScenario.node[39].veinsmobility 	maxSpeed 	16.361749649048
scalar IntersectionExampleScenario.node[39].veinsmobility 	totalDistance 	552.9024810791
scalar IntersectionExampleScenario.node[39].veinsmobility 	totalCO2Emission 	132.58753877903
scalar IntersectionExampleScenario.node[33].appl 	VehicleRemoved 	0
scalar IntersectionExampleScenario.node[33].appl 	ArrivedAtDest 	1
scalar IntersectionExampleScenario.node[33].appl 	IntersectionEnterTime 	104.75
scalar IntersectionExampleScenario.node[33].appl 	IntersectionExitTime 	136.04536399103
scalar IntersectionExampleScenario.node[33].appl 	NumberOfCollisions 	0
scalar IntersectionExampleScenario.node[33].nic.phy80211p 	busyTime 	0
scalar IntersectionExampleScenario.node[33].nic.mac1609_4 	ReceivedUnicastPackets 	0
scalar IntersectionExampleScenario.node[33].nic.mac1609_4 	ReceivedBroadcasts 	0
scalar IntersectionExampleScenario.node[33].nic.mac1609_4 	SentPackets 	0
scalar IntersectionExampleScenario.node[33].nic.mac1609_4 	SNIRLostPackets 	0
scalar IntersectionExampleScenario.node[33].nic.mac1609_4 	RXTXLostPackets 	0
scalar IntersectionExampleScenario.node[33].nic.mac1609_4 	TotalLostPackets 	0
scalar IntersectionExampleScenario.node[33].nic.mac1609_4 	DroppedPacketsInMac 	0
scalar IntersectionExampleScenario.node[33].nic.mac1609_4 	TooLittleTime 	0
scalar IntersectionExampleScenario.node[33].nic.mac1609_4 	TimesIntoBackoff 	0
scalar IntersectionExampleScenario.node[33].nic.mac1609_4 	SlotsBackoff 	0
scalar IntersectionExampleScenario.node[33].nic.mac1609_4 	NumInternalContention 	0
scalar IntersectionExampleScenario.node[33].nic.mac1609_4 	totalBusyTime 	0
scalar IntersectionExampleScenario.node[33].veinsmobility 	startTime 	104.75
scalar IntersectionExampleScenario.node[33].veinsmobility 	totalTime 	47.25
scalar IntersectionExampleScenario.node[33].veinsmobility 	stopTime 	152.25
scalar IntersectionExampleScenario.node[33].veinsmobility 	minSpeed 	4.4592089653015
scalar IntersectionExampleScenario.node[33].veinsmobility 	maxSpeed 	15.445775032043
scalar IntersectionExampleScenario.node[33].veinsmobility 	totalDistance 	552.57199859619
scalar IntersectionExampleScenario.node[33].veinsmobility 	totalCO2Emission 	135.50157116772
scalar IntersectionExampleScenario.node[34].appl 	VehicleRemoved 	0
scalar IntersectionExampleScenario.node[34].appl 	ArrivedAtDest 	1
scalar IntersectionExampleScenario.node[34].appl 	IntersectionEnterTime 	106
scalar IntersectionExampleScenario.node[34].appl 	IntersectionExitTime 	138.30341968845
scalar IntersectionExampleScenario.node[34].appl 	NumberOfCollisions 	0
scalar IntersectionExampleScenario.node[34].nic.phy80211p 	busyTime 	0
scalar IntersectionExampleScenario.node[34].nic.mac1609_4 	ReceivedUnicastPackets 	0
scalar IntersectionExampleScenario.node[34].nic.mac1609_4 	ReceivedBroadcasts 	0
scalar IntersectionExampleScenario.node[34].nic.mac1609_4 	SentPackets 	0
scalar IntersectionExampleScenario.node[34].nic.mac1609_4 	SNIRLostPackets 	0
scalar IntersectionExampleScenario.node[34].nic.mac1609_4 	RXTXLostPackets 	0
scalar IntersectionExampleScenario.node[34].nic.mac1609_4 	TotalLostPackets 	0
scalar IntersectionExampleScenario.node[34].nic.mac1609_4 	DroppedPacketsInMac 	0
scalar IntersectionExampleScenario.node[34].nic.mac1609_4 	TooLittleTime 	0
scalar IntersectionExampleScenario.node[34].nic.mac1609_4 	TimesIntoBackoff 	0
scalar IntersectionExampleScenario.node[34].nic.mac1609_4 	SlotsBackoff 	0
scalar IntersectionExampleScenario.node[34].nic.mac1609_4 	NumInternalContention 	0
scalar IntersectionExampleScenario.node[34].nic.mac1609_4 	totalBusyTime 	0
scalar IntersectionExampleScenario.node[34].veinsmobility 	startTime 	106
scalar IntersectionExampleScenario.node[34].veinsmobility 	totalTime 	49
scalar IntersectionExampleScenario.node[34].veinsmobility 	stopTime 	155.25
scalar IntersectionExampleScenario.node[34].veinsmobility 	minSpeed 	4.5530958175659
scalar IntersectionExampleScenario.node[34].veinsmobility 	maxSpeed 	15.64999961853
scalar IntersectionExampleScenario.node[34].veinsmobility 	totalDistance 	567.27073380081
scalar IntersectionExampleScenario.node[34].veinsmobility 	totalCO2Emission 	143.39485244611
scalar IntersectionExampleScenario.node[36].appl 	VehicleRemoved 	0
scalar IntersectionExampleScenario.node[36].appl 	ArrivedAtDest 	1
scalar IntersectionExampleScenario.node[36].appl 	IntersectionEnterTime 	108.5
scalar IntersectionExampleScenario.node[36].appl 	IntersectionExitTime 	140.04327200347
scalar IntersectionExampleScenario.node[36].appl 	NumberOfCollisions 	0
scalar IntersectionExampleScenario.node[36].nic.phy80211p 	busyTime 	0
scalar IntersectionExampleScenario.node[36].nic.mac1609_4 	ReceivedUnicastPackets 	0
scalar IntersectionExampleScenario.node[36].nic.mac1609_4 	ReceivedBroadcasts 	0
scalar IntersectionExampleScenario.node[36].nic.mac1609_4 	SentPackets 	0
scalar IntersectionExampleScenario.node[36].nic.mac1609_4 	SNIRLostPackets 	0
scalar IntersectionExampleScenario.node[36].nic.mac1609_4 	RXTXLostPackets 	0
scalar IntersectionExampleScenario.node[36].nic.mac1609_4 	TotalLostPackets 	0
scalar IntersectionExampleScenario.node[36].nic.mac1609_4 	DroppedPacketsInMac 	0
scalar IntersectionExampleScenario.node[36].nic.mac1609_4 	TooLittleTime 	0
scalar IntersectionExampleScenario.node[36].nic.mac1609_4 	TimesIntoBackoff 	0
scalar IntersectionExampleScenario.node[36].nic.mac1609_4 	SlotsBackoff 	0
scalar IntersectionExampleScenario.node[36].nic.mac1609_4 	NumInternalContention 	0
scalar IntersectionExampleScenario.node[36].nic.mac1609_4 	totalBusyTime 	0
scalar IntersectionExampleScenario.node[36].veinsmobility 	startTime 	108.5
scalar IntersectionExampleScenario.node[36].veinsmobility 	totalTime 	47.75
scalar IntersectionExampleScenario.node[36].veinsmobility 	stopTime 	156.5
scalar IntersectionExampleScenario.node[36].veinsmobility 	minSpeed 	5.2095251083374
scalar IntersectionExampleScenario.node[36].veinsmobility 	maxSpeed 	15.64999961853
scalar IntersectionExampleScenario.node[36].veinsmobility 	totalDistance 	577.3330840112
scalar IntersectionExampleScenario.node[36].veinsmobility 	totalCO2Emission 	138.56063528069
scalar IntersectionExampleScenario.node[40].appl 	VehicleRemoved 	0
scalar IntersectionExampleScenario.node[40].appl 	ArrivedAtDest 	1
scalar IntersectionExampleScenario.node[40].appl 	IntersectionEnterTime 	115
scalar IntersectionExampleScenario.node[40].appl 	IntersectionExitTime 	142.07692321041
scalar IntersectionExampleScenario.node[40].appl 	NumberOfCollisions 	0
scalar IntersectionExampleScenario.node[40].nic.phy80211p 	busyTime 	0
scalar IntersectionExampleScenario.node[40].nic.mac1609_4 	ReceivedUnicastPackets 	0
scalar IntersectionExampleScenario.node[40].nic.mac1609_4 	ReceivedBroadcasts 	0
scalar IntersectionExampleScenario.node[40].nic.mac1609_4 	SentPackets 	0
scalar IntersectionExampleScenario.node[40].nic.mac1609_4 	SNIRLostPackets 	0
scalar IntersectionExampleScenario.node[40].nic.mac1609_4 	RXTXLostPackets 	0
scalar IntersectionExampleScenario.node[40].nic.mac1609_4 	TotalLostPackets 	0
scalar IntersectionExampleScenario.node[40].nic.mac1609_4 	DroppedPacketsInMac 	0
scalar IntersectionExampleScenario.node[40].nic.mac1609_4 	TooLittleTime 	0
scalar IntersectionExampleScenario.node[40].nic.mac1609_4 	TimesIntoBackoff 	0
scalar IntersectionExampleScenario.node[40].nic.mac1609_4 	SlotsBackoff 	0
scalar IntersectionExampleScenario.node[40].nic.mac1609_4 	NumInternalContention 	0
scalar IntersectionExampleScenario.node[40].nic.mac1609_4 	totalBusyTime 	0
scalar IntersectionExampleScenario.node[40].veinsmobility 	startTime 	115
scalar IntersectionExampleScenario.node[40].veinsmobility 	totalTime 	43.5
scalar IntersectionExampleScenario.node[40].veinsmobility 	stopTime 	158.75
scalar IntersectionExampleScenario.node[40].veinsmobility 	minSpeed 	5.6500000953674
scalar IntersectionExampleScenario.node[40].veinsmobility 	maxSpeed 	15.875
scalar IntersectionExampleScenario.node[40].veinsmobility 	totalDistance 	544.01514010471
scalar IntersectionExampleScenario.node[40].veinsmobility 	totalCO2Emission 	129.25952123229
scalar IntersectionExampleScenario.node[41].appl 	VehicleRemoved 	0
scalar IntersectionExampleScenario.node[41].appl 	ArrivedAtDest 	1
scalar IntersectionExampleScenario.node[41].appl 	IntersectionEnterTime 	119
scalar IntersectionExampleScenario.node[41].appl 	IntersectionExitTime 	144.06089003835
scalar IntersectionExampleScenario.node[41].appl 	NumberOfCollisions 	0
scalar IntersectionExampleScenario.node[41].nic.phy80211p 	busyTime 	0
scalar IntersectionExampleScenario.node[41].nic.mac1609_4 	ReceivedUnicastPackets 	0
scalar IntersectionExampleScenario.node[41].nic.mac1609_4 	ReceivedBroadcasts 	0
scalar IntersectionExampleScenario.node[41].nic.mac1609_4 	SentPackets 	0
scalar IntersectionExampleScenario.node[41].nic.mac1609_4 	SNIRLostPackets 	0
scalar IntersectionExampleScenario.node[41].nic.mac1609_4 	RXTXLostPackets 	0
scalar IntersectionExampleScenario.node[41].nic.mac1609_4 	TotalLostPackets 	0
scalar IntersectionExampleScenario.node[41].nic.mac1609_4 	DroppedPacketsInMac 	0
scalar IntersectionExampleScenario.node[41].nic.mac1609_4 	TooLittleTime 	0
scalar IntersectionExampleScenario.node[41].nic.mac1609_4 	TimesIntoBackoff 	0
scalar IntersectionExampleScenario.node[41].nic.mac1609_4 	SlotsBackoff 	0
scalar IntersectionExampleScenario.node[41].nic.mac1609_4 	NumInternalContention 	0
scalar IntersectionExampleScenario.node[41].nic.mac1609_4 	totalBusyTime 	0
scalar IntersectionExampleScenario.node[41].veinsmobility 	startTime 	119
scalar IntersectionExampleScenario.node[41].veinsmobility 	totalTime 	41.5
scalar IntersectionExampleScenario.node[41].veinsmobility 	stopTime 	160.75
scalar IntersectionExampleScenario.node[41].veinsmobility 	minSpeed 	5.6500000953674
scalar IntersectionExampleScenario.node[41].veinsmobility 	maxSpeed 	15.375
scalar IntersectionExampleScenario.node[41].veinsmobility 	totalDistance 	556.3007399905
scalar IntersectionExampleScenario.node[41].veinsmobility 	totalCO2Emission 	121.52410534155
scalar IntersectionExampleScenario.node[46].appl 	VehicleRemoved 	0
scalar IntersectionExampleScenario.node[46].appl 	ArrivedAtDest 	1
scalar IntersectionExampleScenario.node[46].appl 	IntersectionEnterTime 	128.25
scalar IntersectionExampleScenario.node[46].appl 	IntersectionExitTime 	151.84606566461
scalar IntersectionExampleScenario.node[46].appl 	NumberOfCollisions 	0
scalar IntersectionExampleScenario.node[46].nic.phy80211p 	busyTime 	0
scalar IntersectionExampleScenario.node[46].nic.mac1609_4 	ReceivedUnicastPackets 	0
scalar IntersectionExampleScenario.node[46].nic.mac1609_4 	ReceivedBroadcasts 	0
scalar IntersectionExampleScenario.node[46].nic.mac1609_4 	SentPackets 	0
scalar IntersectionExampleScenario.node[46].nic.mac1609_4 	SNIRLostPackets 	0
scalar IntersectionExampleScenario.node[46].nic.mac1609_4 	RXTXLostPackets 	0
scalar IntersectionExampleScenario.node[46].nic.mac1609_4 	TotalLostPackets 	0
scalar IntersectionExampleScenario.node[46].nic.mac1609_4 	DroppedPacketsInMac 	0
scalar IntersectionExampleScenario.node[46].nic.mac1609_4 	TooLittleTime 	0
scalar IntersectionExampleScenario.node[46].nic.mac1609_4 	TimesIntoBackoff 	0
[...]
scalar IntersectionExampleScenario.node[613].veinsmobility 	totalDistance 	268.2668762207
scalar IntersectionExampleScenario.node[613].veinsmobility 	totalCO2Emission 	98.862084546738
scalar IntersectionExampleScenario.node[615].appl 	VehicleRemoved 	0
scalar IntersectionExampleScenario.node[615].appl 	ArrivedAtDest 	0
scalar IntersectionExampleScenario.node[615].appl 	IntersectionEnterTime 	1750.25
scalar IntersectionExampleScenario.node[615].appl 	IntersectionExitTime 	-1
scalar IntersectionExampleScenario.node[615].appl 	NumberOfCollisions 	0
scalar IntersectionExampleScenario.node[615].nic.phy80211p 	busyTime 	0
scalar IntersectionExampleScenario.node[615].nic.mac1609_4 	ReceivedUnicastPackets 	0
scalar IntersectionExampleScenario.node[615].nic.mac1609_4 	ReceivedBroadcasts 	0
scalar IntersectionExampleScenario.node[615].nic.mac1609_4 	SentPackets 	0
scalar IntersectionExampleScenario.node[615].nic.mac1609_4 	SNIRLostPackets 	0
scalar IntersectionExampleScenario.node[615].nic.mac1609_4 	RXTXLostPackets 	0
scalar IntersectionExampleScenario.node[615].nic.mac1609_4 	TotalLostPackets 	0
scalar IntersectionExampleScenario.node[615].nic.mac1609_4 	DroppedPacketsInMac 	0
scalar IntersectionExampleScenario.node[615].nic.mac1609_4 	TooLittleTime 	0
scalar IntersectionExampleScenario.node[615].nic.mac1609_4 	TimesIntoBackoff 	0
scalar IntersectionExampleScenario.node[615].nic.mac1609_4 	SlotsBackoff 	0
scalar IntersectionExampleScenario.node[615].nic.mac1609_4 	NumInternalContention 	0
scalar IntersectionExampleScenario.node[615].nic.mac1609_4 	totalBusyTime 	0
scalar IntersectionExampleScenario.node[615].veinsmobility 	startTime 	1750.25
scalar IntersectionExampleScenario.node[615].veinsmobility 	totalTime 	49.75
scalar IntersectionExampleScenario.node[615].veinsmobility 	stopTime 	1800
scalar IntersectionExampleScenario.node[615].veinsmobility 	minSpeed 	0
scalar IntersectionExampleScenario.node[615].veinsmobility 	maxSpeed 	15.64999961853
scalar IntersectionExampleScenario.node[615].veinsmobility 	totalDistance 	261.83044433594
scalar IntersectionExampleScenario.node[615].veinsmobility 	totalCO2Emission 	88.646416196279
scalar IntersectionExampleScenario.node[616].appl 	VehicleRemoved 	0
scalar IntersectionExampleScenario.node[616].appl 	ArrivedAtDest 	0
scalar IntersectionExampleScenario.node[616].appl 	IntersectionEnterTime 	1751.75
scalar IntersectionExampleScenario.node[616].appl 	IntersectionExitTime 	-1
scalar IntersectionExampleScenario.node[616].appl 	NumberOfCollisions 	0
scalar IntersectionExampleScenario.node[616].nic.phy80211p 	busyTime 	0
scalar IntersectionExampleScenario.node[616].nic.mac1609_4 	ReceivedUnicastPackets 	0
scalar IntersectionExampleScenario.node[616].nic.mac1609_4 	ReceivedBroadcasts 	0
scalar IntersectionExampleScenario.node[616].nic.mac1609_4 	SentPackets 	0
scalar IntersectionExampleScenario.node[616].nic.mac1609_4 	SNIRLostPackets 	0
scalar IntersectionExampleScenario.node[616].nic.mac1609_4 	RXTXLostPackets 	0
scalar IntersectionExampleScenario.node[616].nic.mac1609_4 	TotalLostPackets 	0
scalar IntersectionExampleScenario.node[616].nic.mac1609_4 	DroppedPacketsInMac 	0
scalar IntersectionExampleScenario.node[616].nic.mac1609_4 	TooLittleTime 	0
scalar IntersectionExampleScenario.node[616].nic.mac1609_4 	TimesIntoBackoff 	0
scalar IntersectionExampleScenario.node[616].nic.mac1609_4 	SlotsBackoff 	0
scalar IntersectionExampleScenario.node[616].nic.mac1609_4 	NumInternalContention 	0
scalar IntersectionExampleScenario.node[616].nic.mac1609_4 	totalBusyTime 	0
scalar IntersectionExampleScenario.node[616].veinsmobility 	startTime 	1751.75
scalar IntersectionExampleScenario.node[616].veinsmobility 	totalTime 	48.25
scalar IntersectionExampleScenario.node[616].veinsmobility 	stopTime 	1800
scalar IntersectionExampleScenario.node[616].veinsmobility 	minSpeed 	0
scalar IntersectionExampleScenario.node[616].veinsmobility 	maxSpeed 	15.02499961853
scalar IntersectionExampleScenario.node[616].veinsmobility 	totalDistance 	281.02271270752
scalar IntersectionExampleScenario.node[616].veinsmobility 	totalCO2Emission 	87.73790024359
scalar IntersectionExampleScenario.node[618].appl 	VehicleRemoved 	0
scalar IntersectionExampleScenario.node[618].appl 	ArrivedAtDest 	0
scalar IntersectionExampleScenario.node[618].appl 	IntersectionEnterTime 	1760.5
scalar IntersectionExampleScenario.node[618].appl 	IntersectionExitTime 	-1
scalar IntersectionExampleScenario.node[618].appl 	NumberOfCollisions 	0
scalar IntersectionExampleScenario.node[618].nic.phy80211p 	busyTime 	0
scalar IntersectionExampleScenario.node[618].nic.mac1609_4 	ReceivedUnicastPackets 	0
scalar IntersectionExampleScenario.node[618].nic.mac1609_4 	ReceivedBroadcasts 	0
scalar IntersectionExampleScenario.node[618].nic.mac1609_4 	SentPackets 	0
scalar IntersectionExampleScenario.node[618].nic.mac1609_4 	SNIRLostPackets 	0
scalar IntersectionExampleScenario.node[618].nic.mac1609_4 	RXTXLostPackets 	0
scalar IntersectionExampleScenario.node[618].nic.mac1609_4 	TotalLostPackets 	0
scalar IntersectionExampleScenario.node[618].nic.mac1609_4 	DroppedPacketsInMac 	0
scalar IntersectionExampleScenario.node[618].nic.mac1609_4 	TooLittleTime 	0
scalar IntersectionExampleScenario.node[618].nic.mac1609_4 	TimesIntoBackoff 	0
scalar IntersectionExampleScenario.node[618].nic.mac1609_4 	SlotsBackoff 	0
scalar IntersectionExampleScenario.node[618].nic.mac1609_4 	NumInternalContention 	0
scalar IntersectionExampleScenario.node[618].nic.mac1609_4 	totalBusyTime 	0
scalar IntersectionExampleScenario.node[618].veinsmobility 	startTime 	1760.5
scalar IntersectionExampleScenario.node[618].veinsmobility 	totalTime 	39.5
scalar IntersectionExampleScenario.node[618].veinsmobility 	stopTime 	1800
scalar IntersectionExampleScenario.node[618].veinsmobility 	minSpeed 	0
scalar IntersectionExampleScenario.node[618].veinsmobility 	maxSpeed 	15.64999961853
scalar IntersectionExampleScenario.node[618].veinsmobility 	totalDistance 	255.02011108398
scalar IntersectionExampleScenario.node[618].veinsmobility 	totalCO2Emission 	76.560090008179
scalar IntersectionExampleScenario.node[619].appl 	VehicleRemoved 	0
scalar IntersectionExampleScenario.node[619].appl 	ArrivedAtDest 	0
scalar IntersectionExampleScenario.node[619].appl 	IntersectionEnterTime 	1765
scalar IntersectionExampleScenario.node[619].appl 	IntersectionExitTime 	1789.5770292909
scalar IntersectionExampleScenario.node[619].appl 	NumberOfCollisions 	0
scalar IntersectionExampleScenario.node[619].nic.phy80211p 	busyTime 	0
scalar IntersectionExampleScenario.node[619].nic.mac1609_4 	ReceivedUnicastPackets 	0
scalar IntersectionExampleScenario.node[619].nic.mac1609_4 	ReceivedBroadcasts 	0
scalar IntersectionExampleScenario.node[619].nic.mac1609_4 	SentPackets 	0
scalar IntersectionExampleScenario.node[619].nic.mac1609_4 	SNIRLostPackets 	0
scalar IntersectionExampleScenario.node[619].nic.mac1609_4 	RXTXLostPackets 	0
scalar IntersectionExampleScenario.node[619].nic.mac1609_4 	TotalLostPackets 	0
scalar IntersectionExampleScenario.node[619].nic.mac1609_4 	DroppedPacketsInMac 	0
scalar IntersectionExampleScenario.node[619].nic.mac1609_4 	TooLittleTime 	0
scalar IntersectionExampleScenario.node[619].nic.mac1609_4 	TimesIntoBackoff 	0
scalar IntersectionExampleScenario.node[619].nic.mac1609_4 	SlotsBackoff 	0
scalar IntersectionExampleScenario.node[619].nic.mac1609_4 	NumInternalContention 	0
scalar IntersectionExampleScenario.node[619].nic.mac1609_4 	totalBusyTime 	0
scalar IntersectionExampleScenario.node[619].veinsmobility 	startTime 	1765
scalar IntersectionExampleScenario.node[619].veinsmobility 	totalTime 	35
scalar IntersectionExampleScenario.node[619].veinsmobility 	stopTime 	1800
scalar IntersectionExampleScenario.node[619].veinsmobility 	minSpeed 	5.6500000953674
scalar IntersectionExampleScenario.node[619].veinsmobility 	maxSpeed 	14.625
scalar IntersectionExampleScenario.node[619].veinsmobility 	totalDistance 	443.40659986569
scalar IntersectionExampleScenario.node[619].veinsmobility 	totalCO2Emission 	105.99500379454
scalar IntersectionExampleScenario.node[620].appl 	VehicleRemoved 	0
scalar IntersectionExampleScenario.node[620].appl 	ArrivedAtDest 	0
scalar IntersectionExampleScenario.node[620].appl 	IntersectionEnterTime 	1766.5
scalar IntersectionExampleScenario.node[620].appl 	IntersectionExitTime 	1790.5318970623
scalar IntersectionExampleScenario.node[620].appl 	NumberOfCollisions 	0
scalar IntersectionExampleScenario.node[620].nic.phy80211p 	busyTime 	0
scalar IntersectionExampleScenario.node[620].nic.mac1609_4 	ReceivedUnicastPackets 	0
scalar IntersectionExampleScenario.node[620].nic.mac1609_4 	ReceivedBroadcasts 	0
scalar IntersectionExampleScenario.node[620].nic.mac1609_4 	SentPackets 	0
scalar IntersectionExampleScenario.node[620].nic.mac1609_4 	SNIRLostPackets 	0
scalar IntersectionExampleScenario.node[620].nic.mac1609_4 	RXTXLostPackets 	0
scalar IntersectionExampleScenario.node[620].nic.mac1609_4 	TotalLostPackets 	0
scalar IntersectionExampleScenario.node[620].nic.mac1609_4 	DroppedPacketsInMac 	0
scalar IntersectionExampleScenario.node[620].nic.mac1609_4 	TooLittleTime 	0
scalar IntersectionExampleScenario.node[620].nic.mac1609_4 	TimesIntoBackoff 	0
scalar IntersectionExampleScenario.node[620].nic.mac1609_4 	SlotsBackoff 	0
scalar IntersectionExampleScenario.node[620].nic.mac1609_4 	NumInternalContention 	0
scalar IntersectionExampleScenario.node[620].nic.mac1609_4 	totalBusyTime 	0
scalar IntersectionExampleScenario.node[620].veinsmobility 	startTime 	1766.5
scalar IntersectionExampleScenario.node[620].veinsmobility 	totalTime 	33.5
scalar IntersectionExampleScenario.node[620].veinsmobility 	stopTime 	1800
scalar IntersectionExampleScenario.node[620].veinsmobility 	minSpeed 	5.6500000953674
scalar IntersectionExampleScenario.node[620].veinsmobility 	maxSpeed 	15.02499961853
scalar IntersectionExampleScenario.node[620].veinsmobility 	totalDistance 	427.3781963297
scalar IntersectionExampleScenario.node[620].veinsmobility 	totalCO2Emission 	104.28299647329
scalar IntersectionExampleScenario.node[621].appl 	VehicleRemoved 	0
scalar IntersectionExampleScenario.node[621].appl 	ArrivedAtDest 	0
scalar IntersectionExampleScenario.node[621].appl 	IntersectionEnterTime 	1773.75
scalar IntersectionExampleScenario.node[621].appl 	IntersectionExitTime 	1797.8191300923
scalar IntersectionExampleScenario.node[621].appl 	NumberOfCollisions 	0
scalar IntersectionExampleScenario.node[621].nic.phy80211p 	busyTime 	0
scalar IntersectionExampleScenario.node[621].nic.mac1609_4 	ReceivedUnicastPackets 	0
scalar IntersectionExampleScenario.node[621].nic.mac1609_4 	ReceivedBroadcasts 	0
scalar IntersectionExampleScenario.node[621].nic.mac1609_4 	SentPackets 	0
scalar IntersectionExampleScenario.node[621].nic.mac1609_4 	SNIRLostPackets 	0
scalar IntersectionExampleScenario.node[621].nic.mac1609_4 	RXTXLostPackets 	0
scalar IntersectionExampleScenario.node[621].nic.mac1609_4 	TotalLostPackets 	0
scalar IntersectionExampleScenario.node[621].nic.mac1609_4 	DroppedPacketsInMac 	0
scalar IntersectionExampleScenario.node[621].nic.mac1609_4 	TooLittleTime 	0
scalar IntersectionExampleScenario.node[621].nic.mac1609_4 	TimesIntoBackoff 	0
scalar IntersectionExampleScenario.node[621].nic.mac1609_4 	SlotsBackoff 	0
scalar IntersectionExampleScenario.node[621].nic.mac1609_4 	NumInternalContention 	0
scalar IntersectionExampleScenario.node[621].nic.mac1609_4 	totalBusyTime 	0
scalar IntersectionExampleScenario.node[621].veinsmobility 	startTime 	1773.75
scalar IntersectionExampleScenario.node[621].veinsmobility 	totalTime 	26.25
scalar IntersectionExampleScenario.node[621].veinsmobility 	stopTime 	1800
scalar IntersectionExampleScenario.node[621].veinsmobility 	minSpeed 	5.6500000953674
scalar IntersectionExampleScenario.node[621].veinsmobility 	maxSpeed 	15.02499961853
scalar IntersectionExampleScenario.node[621].veinsmobility 	totalDistance 	337.08167125383
scalar IntersectionExampleScenario.node[621].veinsmobility 	totalCO2Emission 	87.08428364803
scalar IntersectionExampleScenario.node[622].appl 	VehicleRemoved 	0
scalar IntersectionExampleScenario.node[622].appl 	ArrivedAtDest 	0
scalar IntersectionExampleScenario.node[622].appl 	IntersectionEnterTime 	1777
scalar IntersectionExampleScenario.node[622].appl 	IntersectionExitTime 	-1
scalar IntersectionExampleScenario.node[622].appl 	NumberOfCollisions 	0
scalar IntersectionExampleScenario.node[622].nic.phy80211p 	busyTime 	0
scalar IntersectionExampleScenario.node[622].nic.mac1609_4 	ReceivedUnicastPackets 	0
scalar IntersectionExampleScenario.node[622].nic.mac1609_4 	ReceivedBroadcasts 	0
scalar IntersectionExampleScenario.node[622].nic.mac1609_4 	SentPackets 	0
scalar IntersectionExampleScenario.node[622].nic.mac1609_4 	SNIRLostPackets 	0
scalar IntersectionExampleScenario.node[622].nic.mac1609_4 	RXTXLostPackets 	0
scalar IntersectionExampleScenario.node[622].nic.mac1609_4 	TotalLostPackets 	0
scalar IntersectionExampleScenario.node[622].nic.mac1609_4 	DroppedPacketsInMac 	0
scalar IntersectionExampleScenario.node[622].nic.mac1609_4 	TooLittleTime 	0
scalar IntersectionExampleScenario.node[622].nic.mac1609_4 	TimesIntoBackoff 	0
scalar IntersectionExampleScenario.node[622].nic.mac1609_4 	SlotsBackoff 	0
scalar IntersectionExampleScenario.node[622].nic.mac1609_4 	NumInternalContention 	0
scalar IntersectionExampleScenario.node[622].nic.mac1609_4 	totalBusyTime 	0
scalar IntersectionExampleScenario.node[622].veinsmobility 	startTime 	1777
scalar IntersectionExampleScenario.node[622].veinsmobility 	totalTime 	23
scalar IntersectionExampleScenario.node[622].veinsmobility 	stopTime 	1800
scalar IntersectionExampleScenario.node[622].veinsmobility 	minSpeed 	3.1411561965942
scalar IntersectionExampleScenario.node[622].veinsmobility 	maxSpeed 	16.27499961853
scalar IntersectionExampleScenario.node[622].veinsmobility 	totalDistance 	263.33975982666
scalar IntersectionExampleScenario.node[622].veinsmobility 	totalCO2Emission 	63.815048352892
scalar IntersectionExampleScenario.node[623].appl 	VehicleRemoved 	0
scalar IntersectionExampleScenario.node[623].appl 	ArrivedAtDest 	0
scalar IntersectionExampleScenario.node[623].appl 	IntersectionEnterTime 	1779.25
scalar IntersectionExampleScenario.node[623].appl 	IntersectionExitTime 	-1
scalar IntersectionExampleScenario.node[623].appl 	NumberOfCollisions 	0
scalar IntersectionExampleScenario.node[623].nic.phy80211p 	busyTime 	0
scalar IntersectionExampleScenario.node[623].nic.mac1609_4 	ReceivedUnicastPackets 	0
scalar IntersectionExampleScenario.node[623].nic.mac1609_4 	ReceivedBroadcasts 	0
scalar IntersectionExampleScenario.node[623].nic.mac1609_4 	SentPackets 	0
scalar IntersectionExampleScenario.node[623].nic.mac1609_4 	SNIRLostPackets 	0
scalar IntersectionExampleScenario.node[623].nic.mac1609_4 	RXTXLostPackets 	0
scalar IntersectionExampleScenario.node[623].nic.mac1609_4 	TotalLostPackets 	0
scalar IntersectionExampleScenario.node[623].nic.mac1609_4 	DroppedPacketsInMac 	0
scalar IntersectionExampleScenario.node[623].nic.mac1609_4 	TooLittleTime 	0
scalar IntersectionExampleScenario.node[623].nic.mac1609_4 	TimesIntoBackoff 	0
scalar IntersectionExampleScenario.node[623].nic.mac1609_4 	SlotsBackoff 	0
scalar IntersectionExampleScenario.node[623].nic.mac1609_4 	NumInternalContention 	0
scalar IntersectionExampleScenario.node[623].nic.mac1609_4 	totalBusyTime 	0
scalar IntersectionExampleScenario.node[623].veinsmobility 	startTime 	1779.25
scalar IntersectionExampleScenario.node[623].veinsmobility 	totalTime 	20.75
scalar IntersectionExampleScenario.node[623].veinsmobility 	stopTime 	1800
scalar IntersectionExampleScenario.node[623].veinsmobility 	minSpeed 	3.4924094676971
scalar IntersectionExampleScenario.node[623].veinsmobility 	maxSpeed 	16.27499961853
scalar IntersectionExampleScenario.node[623].veinsmobility 	totalDistance 	235.09423828125
scalar IntersectionExampleScenario.node[623].veinsmobility 	totalCO2Emission 	60.05067967447
scalar IntersectionExampleScenario.node[624].appl 	VehicleRemoved 	0
scalar IntersectionExampleScenario.node[624].appl 	ArrivedAtDest 	0
scalar IntersectionExampleScenario.node[624].appl 	IntersectionEnterTime 	1785.25
scalar IntersectionExampleScenario.node[624].appl 	IntersectionExitTime 	-1
scalar IntersectionExampleScenario.node[624].appl 	NumberOfCollisions 	0
scalar IntersectionExampleScenario.node[624].nic.phy80211p 	busyTime 	0
scalar IntersectionExampleScenario.node[624].nic.mac1609_4 	ReceivedUnicastPackets 	0
scalar IntersectionExampleScenario.node[624].nic.mac1609_4 	ReceivedBroadcasts 	0
scalar IntersectionExampleScenario.node[624].nic.mac1609_4 	SentPackets 	0
scalar IntersectionExampleScenario.node[624].nic.mac1609_4 	SNIRLostPackets 	0
scalar IntersectionExampleScenario.node[624].nic.mac1609_4 	RXTXLostPackets 	0
scalar IntersectionExampleScenario.node[624].nic.mac1609_4 	TotalLostPackets 	0
scalar IntersectionExampleScenario.node[624].nic.mac1609_4 	DroppedPacketsInMac 	0
scalar IntersectionExampleScenario.node[624].nic.mac1609_4 	TooLittleTime 	0
scalar IntersectionExampleScenario.node[624].nic.mac1609_4 	TimesIntoBackoff 	0
scalar IntersectionExampleScenario.node[624].nic.mac1609_4 	SlotsBackoff 	0
scalar IntersectionExampleScenario.node[624].nic.mac1609_4 	NumInternalContention 	0
scalar IntersectionExampleScenario.node[624].nic.mac1609_4 	totalBusyTime 	0
scalar IntersectionExampleScenario.node[624].veinsmobility 	startTime 	1785.25
scalar IntersectionExampleScenario.node[624].veinsmobility 	totalTime 	14.75
scalar IntersectionExampleScenario.node[624].veinsmobility 	stopTime 	1800
scalar IntersectionExampleScenario.node[624].veinsmobility 	minSpeed 	5.6500000953674
scalar IntersectionExampleScenario.node[624].veinsmobility 	maxSpeed 	15.02499961853
scalar IntersectionExampleScenario.node[624].veinsmobility 	totalDistance 	199.91486358643
scalar IntersectionExampleScenario.node[624].veinsmobility 	totalCO2Emission 	52.936867064549
scalar IntersectionExampleScenario.node[625].appl 	VehicleRemoved 	0
scalar IntersectionExampleScenario.node[625].appl 	ArrivedAtDest 	0
scalar IntersectionExampleScenario.node[625].appl 	IntersectionEnterTime 	1798
scalar IntersectionExampleScenario.node[625].appl 	IntersectionExitTime 	-1
scalar IntersectionExampleScenario.node[625].appl 	NumberOfCollisions 	0
scalar IntersectionExampleScenario.node[625].nic.phy80211p 	busyTime 	0
scalar IntersectionExampleScenario.node[625].nic.mac1609_4 	ReceivedUnicastPackets 	0
scalar IntersectionExampleScenario.node[625].nic.mac1609_4 	ReceivedBroadcasts 	0
scalar IntersectionExampleScenario.node[625].nic.mac1609_4 	SentPackets 	0
scalar IntersectionExampleScenario.node[625].nic.mac1609_4 	SNIRLostPackets 	0
scalar IntersectionExampleScenario.node[625].nic.mac1609_4 	RXTXLostPackets 	0
scalar IntersectionExampleScenario.node[625].nic.mac1609_4 	TotalLostPackets 	0
scalar IntersectionExampleScenario.node[625].nic.mac1609_4 	DroppedPacketsInMac 	0
scalar IntersectionExampleScenario.node[625].nic.mac1609_4 	TooLittleTime 	0
scalar IntersectionExampleScenario.node[625].nic.mac1609_4 	TimesIntoBackoff 	0
scalar IntersectionExampleScenario.node[625].nic.mac1609_4 	SlotsBackoff 	0
scalar IntersectionExampleScenario.node[625].nic.mac1609_4 	NumInternalContention 	0
scalar IntersectionExampleScenario.node[625].nic.mac1609_4 	totalBusyTime 	0
scalar IntersectionExampleScenario.node[625].veinsmobility 	startTime 	1798
scalar IntersectionExampleScenario.node[625].veinsmobility 	totalTime 	2
scalar IntersectionExampleScenario.node[625].veinsmobility 	stopTime 	1800
scalar IntersectionExampleScenario.node[625].veinsmobility 	minSpeed 	5.6500000953674
scalar IntersectionExampleScenario.node[625].veinsmobility 	maxSpeed 	10.02499961853
scalar IntersectionExampleScenario.node[625].veinsmobility 	totalDistance 	15.049987792969
scalar IntersectionExampleScenario.node[625].veinsmobility 	totalCO2Emission 	11.317369352905
