file 25665252 1591460638                                        
version 2
run nodebug-2-20200606-12:19:44-21956
attr configname nodebug
attr datetime 20200606-12:19:44
attr experiment nodebug
attr inifile omnetpp.ini
attr iterationvars ""
attr iterationvars2 $repetition=2
attr measurement ""
attr network "\"org.car2x.veins.modules.application.ExtTraCIScenarioManagerLaunchd.IntersectionExampleScenario\""
attr processid 21956
attr repetition 2
attr replication #2
attr resultdir results
attr runnumber 2
attr seedset 2
param **.coreDebug false
param **.debug false
param *.**.nic.mac1609_4.bitrate 18Mbps
param *.**.nic.mac1609_4.txPower 20mW
param *.**.nic.mac1609_4.useServiceChannel false
param *.**.nic.phy80211p.analogueModels "xmldoc(\"config.xml\")"
param *.**.nic.phy80211p.decider "xmldoc(\"config.xml\")"
param *.**.nic.phy80211p.sensitivity -89dBm
param *.**.nic.phy80211p.thermalNoise -110dBm
param *.**.nic.phy80211p.usePropagationDelay true
param *.**.nic.phy80211p.useThermalNoise true
param *.annotations.draw false
param *.connectionManager.alpha 2.0
param *.connectionManager.carrierFrequency "5.890e9 Hz"
param *.connectionManager.pMax 20mW
param *.connectionManager.sat -89dBm
param *.connectionManager.sendDirect true
param *.manager.autoShutdown true
param *.manager.host "\"localhost\""
param *.manager.launchConfig "xmldoc(\"paramics.launchd.xml\")"
param *.manager.margin 25
param *.manager.moduleDisplayString "\"\""
param *.manager.moduleName "\"node\""
param *.manager.moduleType "\"org.car2x.veins.nodes.Car\""
param *.manager.port 9999
param *.manager.updateInterval 250ms
param *.node[*0].veinsmobility.accidentCount 0
param *.node[*0].veinsmobility.accidentDuration 30s
param *.node[*0].veinsmobility.accidentStart 75s
param *.node[*].appl.LiderSelectZoneRadio 55.0
param *.node[*].appl.ShareDataZoneRadio 110.0
param *.node[*].appl.TiempoSemaforo 30.0
param *.node[*].appl.beaconInterval 1s
param *.node[*].appl.beaconPriority 3
param *.node[*].appl.dataOnSch false
param *.node[*].appl.dataPriority 2
param *.node[*].appl.debug false
param *.node[*].appl.headerLength "256 bit"
param *.node[*].appl.maxOffset 0.005s
param *.node[*].appl.sendBeacons false
param *.node[*].appl.sendData true
param *.node[*].applType "\"Dummy\""
param *.node[*].mobilityType "\"TraCIMobility\""
param *.node[*].mobilityType.debug true
param *.node[*].veinsmobility.x 0
param *.node[*].veinsmobility.y 0
param *.node[*].veinsmobility.z 1.895
param *.node[*].veinsmobilityType "\"org.car2x.veins.modules.mobility.traci.TraCIMobility\""
param *.node[*].veinsmobilityType.debug true
param *.playgroundSizeX 8500m
param *.playgroundSizeY 8500m
param *.playgroundSizeZ 50m
param *.world.use2D false
param *.world.useTorus false

vector 4  IntersectionExampleScenario.manager  vehiclesinsim  ETV
attr type  int
vector 5  IntersectionExampleScenario.manager  realtime  ETV
attr type  int
attr unit  s
vector 8  IntersectionExampleScenario.node[0].veinsmobility  posx  ETV
vector 9  IntersectionExampleScenario.node[0].veinsmobility  posy  ETV
vector 10  IntersectionExampleScenario.node[0].veinsmobility  speed  ETV
vector 11  IntersectionExampleScenario.node[0].veinsmobility  acceleration  ETV
vector 12  IntersectionExampleScenario.node[0].veinsmobility  co2emission  ETV
vector 15  IntersectionExampleScenario.node[1].veinsmobility  posx  ETV
vector 16  IntersectionExampleScenario.node[1].veinsmobility  posy  ETV
vector 17  IntersectionExampleScenario.node[1].veinsmobility  speed  ETV
vector 18  IntersectionExampleScenario.node[1].veinsmobility  acceleration  ETV
vector 19  IntersectionExampleScenario.node[1].veinsmobility  co2emission  ETV
vector 22  IntersectionExampleScenario.node[2].veinsmobility  posx  ETV
vector 23  IntersectionExampleScenario.node[2].veinsmobility  posy  ETV
vector 24  IntersectionExampleScenario.node[2].veinsmobility  speed  ETV
vector 25  IntersectionExampleScenario.node[2].veinsmobility  acceleration  ETV
vector 26  IntersectionExampleScenario.node[2].veinsmobility  co2emission  ETV
vector 29  IntersectionExampleScenario.node[3].veinsmobility  posx  ETV
vector 30  IntersectionExampleScenario.node[3].veinsmobility  posy  ETV
vector 31  IntersectionExampleScenario.node[3].veinsmobility  speed  ETV
vector 32  IntersectionExampleScenario.node[3].veinsmobility  acceleration  ETV
vector 33  IntersectionExampleScenario.node[3].veinsmobility  co2emission  ETV
vector 36  IntersectionExampleScenario.node[4].veinsmobility  posx  ETV
vector 37  IntersectionExampleScenario.node[4].veinsmobility  posy  ETV
vector 43  IntersectionExampleScenario.node[5].veinsmobility  posx  ETV
vector 44  IntersectionExampleScenario.node[5].veinsmobility  posy  ETV
vector 38  IntersectionExampleScenario.node[4].veinsmobility  speed  ETV
vector 45  IntersectionExampleScenario.node[5].veinsmobility  speed  ETV
vector 39  IntersectionExampleScenario.node[4].veinsmobility  acceleration  ETV
vector 40  IntersectionExampleScenario.node[4].veinsmobility  co2emission  ETV
vector 46  IntersectionExampleScenario.node[5].veinsmobility  acceleration  ETV
vector 47  IntersectionExampleScenario.node[5].veinsmobility  co2emission  ETV
vector 50  IntersectionExampleScenario.node[6].veinsmobility  posx  ETV
vector 51  IntersectionExampleScenario.node[6].veinsmobility  posy  ETV
vector 52  IntersectionExampleScenario.node[6].veinsmobility  speed  ETV
vector 53  IntersectionExampleScenario.node[6].veinsmobility  acceleration  ETV
vector 54  IntersectionExampleScenario.node[6].veinsmobility  co2emission  ETV
vector 57  IntersectionExampleScenario.node[7].veinsmobility  posx  ETV
vector 58  IntersectionExampleScenario.node[7].veinsmobility  posy  ETV
vector 59  IntersectionExampleScenario.node[7].veinsmobility  speed  ETV
vector 60  IntersectionExampleScenario.node[7].veinsmobility  acceleration  ETV
vector 61  IntersectionExampleScenario.node[7].veinsmobility  co2emission  ETV
vector 64  IntersectionExampleScenario.node[8].veinsmobility  posx  ETV
vector 65  IntersectionExampleScenario.node[8].veinsmobility  posy  ETV
vector 66  IntersectionExampleScenario.node[8].veinsmobility  speed  ETV
vector 67  IntersectionExampleScenario.node[8].veinsmobility  acceleration  ETV
vector 68  IntersectionExampleScenario.node[8].veinsmobility  co2emission  ETV
vector 71  IntersectionExampleScenario.node[9].veinsmobility  posx  ETV
vector 72  IntersectionExampleScenario.node[9].veinsmobility  posy  ETV
vector 73  IntersectionExampleScenario.node[9].veinsmobility  speed  ETV
vector 74  IntersectionExampleScenario.node[9].veinsmobility  acceleration  ETV
vector 75  IntersectionExampleScenario.node[9].veinsmobility  co2emission  ETV
vector 78  IntersectionExampleScenario.node[10].veinsmobility  posx  ETV
vector 79  IntersectionExampleScenario.node[10].veinsmobility  posy  ETV
vector 80  IntersectionExampleScenario.node[10].veinsmobility  speed  ETV
vector 81  IntersectionExampleScenario.node[10].veinsmobility  acceleration  ETV
vector 82  IntersectionExampleScenario.node[10].veinsmobility  co2emission  ETV
vector 85  IntersectionExampleScenario.node[11].veinsmobility  posx  ETV
vector 86  IntersectionExampleScenario.node[11].veinsmobility  posy  ETV
vector 92  IntersectionExampleScenario.node[12].veinsmobility  posx  ETV
vector 93  IntersectionExampleScenario.node[12].veinsmobility  posy  ETV
vector 87  IntersectionExampleScenario.node[11].veinsmobility  speed  ETV
vector 94  IntersectionExampleScenario.node[12].veinsmobility  speed  ETV
vector 88  IntersectionExampleScenario.node[11].veinsmobility  acceleration  ETV
vector 89  IntersectionExampleScenario.node[11].veinsmobility  co2emission  ETV
vector 95  IntersectionExampleScenario.node[12].veinsmobility  acceleration  ETV
vector 96  IntersectionExampleScenario.node[12].veinsmobility  co2emission  ETV
vector 99  IntersectionExampleScenario.node[13].veinsmobility  posx  ETV
vector 100  IntersectionExampleScenario.node[13].veinsmobility  posy  ETV
vector 101  IntersectionExampleScenario.node[13].veinsmobility  speed  ETV
vector 102  IntersectionExampleScenario.node[13].veinsmobility  acceleration  ETV
vector 103  IntersectionExampleScenario.node[13].veinsmobility  co2emission  ETV
vector 106  IntersectionExampleScenario.node[14].veinsmobility  posx  ETV
vector 107  IntersectionExampleScenario.node[14].veinsmobility  posy  ETV
vector 108  IntersectionExampleScenario.node[14].veinsmobility  speed  ETV
vector 109  IntersectionExampleScenario.node[14].veinsmobility  acceleration  ETV
vector 110  IntersectionExampleScenario.node[14].veinsmobility  co2emission  ETV
12	8669 4456 10 2734 1.25 40.75 159 0.97223939240464 11.810082123732 510.77028223866 2874.4849760491
11	13125 4136 10 2734 1.25 40.75 159 -3.2486534118652 2.5 38.680875778198 286.4604145519
10	17261 4327 7 2734 1 40.75 160 5.6500000953674 15.875 2178.4168691635 31045.042260218
9	21588 4520 4 2734 0.75 40.75 161 486.85000610352 731.76446533203 86434.779129028 47311071.795796
8	26108 4519 4 2734 0.75 40.75 161 486.85000610352 785.82187652588 92177.350135803 54511279.763774
vector 113  IntersectionExampleScenario.node[15].veinsmobility  posx  ETV
vector 114  IntersectionExampleScenario.node[15].veinsmobility  posy  ETV
vector 115  IntersectionExampleScenario.node[15].veinsmobility  speed  ETV
vector 116  IntersectionExampleScenario.node[15].veinsmobility  acceleration  ETV
vector 117  IntersectionExampleScenario.node[15].veinsmobility  co2emission  ETV
vector 120  IntersectionExampleScenario.node[16].veinsmobility  posx  ETV
vector 121  IntersectionExampleScenario.node[16].veinsmobility  posy  ETV
vector 122  IntersectionExampleScenario.node[16].veinsmobility  speed  ETV
vector 127  IntersectionExampleScenario.node[17].veinsmobility  posx  ETV
vector 128  IntersectionExampleScenario.node[17].veinsmobility  posy  ETV
vector 123  IntersectionExampleScenario.node[16].veinsmobility  acceleration  ETV
vector 124  IntersectionExampleScenario.node[16].veinsmobility  co2emission  ETV
vector 129  IntersectionExampleScenario.node[17].veinsmobility  speed  ETV
vector 134  IntersectionExampleScenario.node[18].veinsmobility  posx  ETV
vector 135  IntersectionExampleScenario.node[18].veinsmobility  posy  ETV
vector 130  IntersectionExampleScenario.node[17].veinsmobility  acceleration  ETV
vector 131  IntersectionExampleScenario.node[17].veinsmobility  co2emission  ETV
vector 141  IntersectionExampleScenario.node[19].veinsmobility  posx  ETV
vector 142  IntersectionExampleScenario.node[19].veinsmobility  posy  ETV
vector 136  IntersectionExampleScenario.node[18].veinsmobility  speed  ETV
vector 137  IntersectionExampleScenario.node[18].veinsmobility  acceleration  ETV
vector 138  IntersectionExampleScenario.node[18].veinsmobility  co2emission  ETV
vector 143  IntersectionExampleScenario.node[19].veinsmobility  speed  ETV
vector 144  IntersectionExampleScenario.node[19].veinsmobility  acceleration  ETV
vector 145  IntersectionExampleScenario.node[19].veinsmobility  co2emission  ETV
19	32582 4622 35 3018 3 43.75 164 0.973 11.36141391502 493.09962632924 2581.4212800182
18	37204 4234 35 3018 3 43.75 164 -3.5891742706299 2.5 35.964826583862 268.88141109557
17	41438 4513 30 3018 2.75 43.75 165 5.6500000953674 15.25 2185.01689291 30091.63973049
16	45951 4856 25 3018 2.5 43.75 166 236.29425048828 483.14999389648 71671.362426758 31907627.636644
15	50807 4830 25 3018 2.5 43.75 166 184.17810058594 483.21524047852 66034.037597656 28045524.293916
33	55637 4441 153 3363 8 46.75 156 0.973 11.810082123732 516.4191369005 2945.0878265345
32	60078 4304 153 3363 8 46.75 156 -3.6021327972412 2.5 40.038900375366 301.11494750477
31	64382 4319 144 3363 7.75 46.75 157 5.6500000953674 16.021591186523 2177.6197857857 31694.99763413
30	68701 4672 135 3363 7.5 46.75 158 486.85000610352 731.61201477051 84806.676467896 46407369.918342
29	73373 4676 135 3363 7.5 46.75 158 486.73843383789 785.82187652588 90522.163963318 53581316.519468
vector 148  IntersectionExampleScenario.node[20].veinsmobility  posx  ETV
vector 149  IntersectionExampleScenario.node[20].veinsmobility  posy  ETV
54	78199 4461 288 3641 10.75 49.5 156 0.973 12.16701947997 532.29961686942 3032.0456516596
53	82660 4389 288 3641 10.75 49.5 156 -3.3900184631348 2.5000038146973 41.227170944214 269.4688924749
52	87049 4390 273 3641 10.5 49.5 157 5.6500000953674 16.36882019043 2258.2094564438 33594.579288149
51	91439 4696 258 3641 10.25 49.5 158 238.64422607422 486.85000610352 68945.679992676 30995995.544459
50	96135 4688 258 3641 10.25 49.5 158 483.14999389648 800.04531860352 91294.84362793 54702902.301985
vector 150  IntersectionExampleScenario.node[20].veinsmobility  speed  ETV
vector 155  IntersectionExampleScenario.node[21].veinsmobility  posx  ETV
vector 156  IntersectionExampleScenario.node[21].veinsmobility  posy  ETV
vector 151  IntersectionExampleScenario.node[20].veinsmobility  acceleration  ETV
vector 152  IntersectionExampleScenario.node[20].veinsmobility  co2emission  ETV
vector 157  IntersectionExampleScenario.node[21].veinsmobility  speed  ETV
vector 158  IntersectionExampleScenario.node[21].veinsmobility  acceleration  ETV
vector 159  IntersectionExampleScenario.node[21].veinsmobility  co2emission  ETV
vector 162  IntersectionExampleScenario.node[22].veinsmobility  posx  ETV
vector 163  IntersectionExampleScenario.node[22].veinsmobility  posy  ETV
vector 164  IntersectionExampleScenario.node[22].veinsmobility  speed  ETV
vector 165  IntersectionExampleScenario.node[22].veinsmobility  acceleration  ETV
vector 166  IntersectionExampleScenario.node[22].veinsmobility  co2emission  ETV
vector 169  IntersectionExampleScenario.node[23].veinsmobility  posx  ETV
vector 170  IntersectionExampleScenario.node[23].veinsmobility  posy  ETV
vector 171  IntersectionExampleScenario.node[23].veinsmobility  speed  ETV
vector 176  IntersectionExampleScenario.node[24].veinsmobility  posx  ETV
vector 177  IntersectionExampleScenario.node[24].veinsmobility  posy  ETV
vector 183  IntersectionExampleScenario.node[25].veinsmobility  posx  ETV
vector 184  IntersectionExampleScenario.node[25].veinsmobility  posy  ETV
vector 172  IntersectionExampleScenario.node[23].veinsmobility  acceleration  ETV
vector 173  IntersectionExampleScenario.node[23].veinsmobility  co2emission  ETV
vector 178  IntersectionExampleScenario.node[24].veinsmobility  speed  ETV
vector 185  IntersectionExampleScenario.node[25].veinsmobility  speed  ETV
vector 190  IntersectionExampleScenario.node[26].veinsmobility  posx  ETV
vector 191  IntersectionExampleScenario.node[26].veinsmobility  posy  ETV
vector 179  IntersectionExampleScenario.node[24].veinsmobility  acceleration  ETV
vector 180  IntersectionExampleScenario.node[24].veinsmobility  co2emission  ETV
vector 186  IntersectionExampleScenario.node[25].veinsmobility  acceleration  ETV
vector 187  IntersectionExampleScenario.node[25].veinsmobility  co2emission  ETV
vector 192  IntersectionExampleScenario.node[26].veinsmobility  speed  ETV
vector 197  IntersectionExampleScenario.node[27].veinsmobility  posx  ETV
vector 198  IntersectionExampleScenario.node[27].veinsmobility  posy  ETV
vector 204  IntersectionExampleScenario.node[28].veinsmobility  posx  ETV
vector 205  IntersectionExampleScenario.node[28].veinsmobility  posy  ETV
vector 193  IntersectionExampleScenario.node[26].veinsmobility  acceleration  ETV
vector 194  IntersectionExampleScenario.node[26].veinsmobility  co2emission  ETV
47	103710 5027 206 4095 9.25 53.25 177 0.973 11.54047740176 552.15220795679 2767.5066564903
46	108737 4767 206 4095 9.25 53.25 177 -4.5 2.5 38.680875778198 417.72814216624
45	113504 5139 193 4095 9 53.25 178 1.1562950611115 15.5 2272.9870716333 31976.473485121
44	118643 5279 180 4095 8.75 53.25 179 168.58435058594 731.90669250488 79121.621078491 39446221.806912
43	123922 5318 180 4095 8.75 53.25 179 486.85000610352 486.85000610352 87146.151092529 42427104.191296
26	129240 5210 114 4095 6.75 53.25 187 0.973 10.916047529558 523.34603156099 2494.1402487768
25	134450 4717 114 4095 6.75 53.25 187 -8.9526224136353 4 34.097539901733 460.04264641521
24	139167 5087 107 4095 6.5 53.25 188 0 14.625 2176.7996146679 28813.700535207
23	144254 5565 100 4095 6.25 53.25 189 184.17810058594 483.36395263672 76580.223175049 32927419.818711
22	149819 5529 100 4095 6.25 53.25 189 486.85000610352 733.50439453125 100799.13192749 54793952.18797
vector 199  IntersectionExampleScenario.node[27].veinsmobility  speed  ETV
vector 206  IntersectionExampleScenario.node[28].veinsmobility  speed  ETV
vector 200  IntersectionExampleScenario.node[27].veinsmobility  acceleration  ETV
vector 201  IntersectionExampleScenario.node[27].veinsmobility  co2emission  ETV
vector 207  IntersectionExampleScenario.node[28].veinsmobility  acceleration  ETV
vector 208  IntersectionExampleScenario.node[28].veinsmobility  co2emission  ETV
vector 211  IntersectionExampleScenario.node[29].veinsmobility  posx  ETV
vector 212  IntersectionExampleScenario.node[29].veinsmobility  posy  ETV
vector 213  IntersectionExampleScenario.node[29].veinsmobility  speed  ETV
vector 218  IntersectionExampleScenario.node[30].veinsmobility  posx  ETV
vector 219  IntersectionExampleScenario.node[30].veinsmobility  posy  ETV
vector 214  IntersectionExampleScenario.node[29].veinsmobility  acceleration  ETV
vector 215  IntersectionExampleScenario.node[29].veinsmobility  co2emission  ETV
vector 220  IntersectionExampleScenario.node[30].veinsmobility  speed  ETV
vector 221  IntersectionExampleScenario.node[30].veinsmobility  acceleration  ETV
vector 222  IntersectionExampleScenario.node[30].veinsmobility  co2emission  ETV
40	156612 5670 206 5473 9.25 62.25 213 0.973 11.648172402475 583.97263179801 2982.1228861368
39	162282 5298 206 5473 9.25 62.25 213 -7.0182418823242 4 38.171613693237 483.47221876608
38	167580 5463 193 5473 9 62.25 214 0 15.64999961853 2210.210688591 31332.337178684
37	173043 6378 180 5473 8.75 62.25 215 237.14044189453 785.82187652588 110787.12432098 61248255.324309
36	179421 6398 180 5473 8.75 62.25 215 483.14999389648 483.14999389648 103877.24868774 50188292.069467
61	185819 5767 397 5707 12.5 63.75 206 0.973 11.648172402475 574.00872531159 2909.4125434885
60	191586 5540 397 5707 12.5 63.75 206 -4.5 2.5 38.341367721558 426.43148392907
59	197126 5875 380 5707 12.25 63.75 207 0 15.64999961853 2227.4083533771 30826.004335076
58	203001 6173 363 5707 12 63.75 208 486.67098999023 797.07032012939 116967.81801605 67856272.73061
57	209174 6189 363 5707 12 63.75 208 237.2783203125 483.14999389648 92338.484527588 42005497.809791
75	215363 5385 833 6218 18.5 67.25 196 0.973 10.916047529558 527.74295168639 2508.2619125455
74	220748 5424 833 6218 18.5 67.25 196 -2.1346397399902 2.5 34.606801986694 267.29850119555
73	226172 5621 812 6218 18.25 67.25 197 3.0051691532135 14.625 2191.8082406521 27282.327730966
72	231793 5917 791 6218 18 67.25 198 486.85000610352 785.82187652588 112157.50343323 65385444.934357
71	237710 5921 791 6218 18 67.25 198 234.82189941406 483.14999389648 86837.022827148 39150565.703649
vector 225  IntersectionExampleScenario.node[31].veinsmobility  posx  ETV
vector 226  IntersectionExampleScenario.node[31].veinsmobility  posy  ETV
vector 227  IntersectionExampleScenario.node[31].veinsmobility  speed  ETV
vector 232  IntersectionExampleScenario.node[32].veinsmobility  posx  ETV
vector 233  IntersectionExampleScenario.node[32].veinsmobility  posy  ETV
vector 228  IntersectionExampleScenario.node[31].veinsmobility  acceleration  ETV
vector 229  IntersectionExampleScenario.node[31].veinsmobility  co2emission  ETV
vector 234  IntersectionExampleScenario.node[32].veinsmobility  speed  ETV
vector 235  IntersectionExampleScenario.node[32].veinsmobility  acceleration  ETV
vector 236  IntersectionExampleScenario.node[32].veinsmobility  co2emission  ETV
68	244413 5754 639 6704 16 70.75 220 0.96333723109819 12.099024792222 609.71079773723 3312.4289931904
67	250167 5397 639 6704 16 70.75 220 -7.8557462692261 4 40.208654403687 511.10157079398
66	255564 5513 620 6704 15.75 70.75 221 0 16.27499961853 2194.7979671955 31845.795622147
65	261077 6640 601 6704 15.5 70.75 222 238.72613525391 486.85000610352 100034.73742676 46114031.569682
64	267717 6628 601 6704 15.5 70.75 222 483.14999389648 785.82187652588 122162.16278839 69217531.937907
vector 239  IntersectionExampleScenario.node[33].veinsmobility  posx  ETV
vector 240  IntersectionExampleScenario.node[33].veinsmobility  posy  ETV
vector 241  IntersectionExampleScenario.node[33].veinsmobility  speed  ETV
vector 242  IntersectionExampleScenario.node[33].veinsmobility  acceleration  ETV
vector 243  IntersectionExampleScenario.node[33].veinsmobility  co2emission  ETV
89	274736 4943 1623 7012 28 73 181 0.96333723109819 12.099024792222 558.24756995528 3187.9686416026
88	279679 4906 1623 7012 28 73 181 -2.9398937225342 2.5 40.208654403687 336.91348601055
87	284585 5128 1600 7012 27.75 73 182 2.9937555789948 16.27499961853 2181.1733386517 29612.243329863
86	289713 5486 1577 7012 27.5 73 183 486.85000610352 732.08662414551 96988.766113281 52347572.83777
85	295199 5465 1577 7012 27.5 73 183 486.849609375 785.82187652588 103751.9083786 60583634.056563
vector 246  IntersectionExampleScenario.node[34].veinsmobility  posx  ETV
vector 247  IntersectionExampleScenario.node[34].veinsmobility  posy  ETV
110	300814 4776 2155 7210 33.75 74.5 164 0.973 11.990504229548 561.67506781669 3516.528075979
109	305590 4596 2155 7210 33.75 74.5 164 -3.3504219055176 2.5000019073486 39.869146347046 346.33820985785
108	310186 4859 2130 7210 33.5 74.5 165 5.6500000953674 16.125 2210.4333591461 30987.699129154
107	315045 5147 2105 7210 33.25 74.5 166 486.85000610352 486.85000610352 80817.101013184 39345806.121537
106	320192 5132 2105 7210 33.25 74.5 166 238.22021484375 785.82187652588 87326.296806335 50004925.905666
vector 253  IntersectionExampleScenario.node[35].veinsmobility  posx  ETV
vector 254  IntersectionExampleScenario.node[35].veinsmobility  posy  ETV
vector 248  IntersectionExampleScenario.node[34].veinsmobility  speed  ETV
vector 249  IntersectionExampleScenario.node[34].veinsmobility  acceleration  ETV
vector 250  IntersectionExampleScenario.node[34].veinsmobility  co2emission  ETV
vector 255  IntersectionExampleScenario.node[35].veinsmobility  speed  ETV
vector 256  IntersectionExampleScenario.node[35].veinsmobility  acceleration  ETV
vector 257  IntersectionExampleScenario.node[35].veinsmobility  co2emission  ETV
vector 260  IntersectionExampleScenario.node[36].veinsmobility  posx  ETV
vector 261  IntersectionExampleScenario.node[36].veinsmobility  posy  ETV
vector 262  IntersectionExampleScenario.node[36].veinsmobility  speed  ETV
vector 263  IntersectionExampleScenario.node[36].veinsmobility  acceleration  ETV
vector 264  IntersectionExampleScenario.node[36].veinsmobility  co2emission  ETV
vector 267  IntersectionExampleScenario.node[37].veinsmobility  posx  ETV
vector 268  IntersectionExampleScenario.node[37].veinsmobility  posy  ETV
vector 269  IntersectionExampleScenario.node[37].veinsmobility  speed  ETV
vector 270  IntersectionExampleScenario.node[37].veinsmobility  acceleration  ETV
vector 271  IntersectionExampleScenario.node[37].veinsmobility  co2emission  ETV
vector 274  IntersectionExampleScenario.node[38].veinsmobility  posx  ETV
vector 275  IntersectionExampleScenario.node[38].veinsmobility  posy  ETV
vector 276  IntersectionExampleScenario.node[38].veinsmobility  speed  ETV
vector 277  IntersectionExampleScenario.node[38].veinsmobility  acceleration  ETV
vector 278  IntersectionExampleScenario.node[38].veinsmobility  co2emission  ETV
117	327129 4667 2795 7988 41.5 79.75 154 0.973 11.648172402475 472.37063277033 2468.6221642102
116	331796 4195 2795 7988 41.5 79.75 154 -3.3639030456543 2.5 38.511121749878 193.75141553485
115	335991 4572 2774 7988 41.25 79.75 155 5.6500000953674 15.64999961853 2221.424943924 32483.242225398
114	340563 4836 2753 7988 41 79.75 156 483.14999389648 483.14999389648 75371.399047852 36415690.989939
113	345399 4808 2753 7988 41 79.75 156 184.17810058594 734.3458404541 70055.718399048 35615242.966205
vector 281  IntersectionExampleScenario.node[39].veinsmobility  posx  ETV
vector 282  IntersectionExampleScenario.node[39].veinsmobility  posy  ETV
vector 283  IntersectionExampleScenario.node[39].veinsmobility  speed  ETV
vector 284  IntersectionExampleScenario.node[39].veinsmobility  acceleration  ETV
vector 285  IntersectionExampleScenario.node[39].veinsmobility  co2emission  ETV
131	350598 4801 2933 8363 43 82.25 158 0.973 11.648172402475 494.24409055884 2543.156959846
130	355399 4253 2933 8363 43 82.25 158 -4.5 2.5 39.699392318726 208.60304221668
129	359652 4702 2908 8363 42.75 82.25 159 5.6500000953674 15.64999961853 2299.2760725021 33964.812171422
128	364354 4960 2883 8363 42.5 82.25 160 483.14999389648 483.14999389648 77303.999023438 37349426.656348
127	369314 4919 2883 8363 42.5 82.25 160 163.88433837891 733.12063598633 70090.361679077 35232888.054936
145	374233 4793 3018 8545 43.75 83.5 160 0.973 11.648172402475 506.70343826296 2755.6484461488
144	379026 4482 3018 8545 43.75 83.5 160 -3.6333045959473 2.5 38.341367721558 283.25404903657
143	383508 4668 2989 8545 43.5 83.5 161 5.6500000953674 15.64999961853 2189.2360258102 31132.606644342
142	388176 5009 2960 8545 43.25 83.5 162 486.85000610352 734.29515075684 87141.018692017 47810408.27435
141	393185 5013 2960 8545 43.25 83.5 162 486.71475219727 785.82187652588 92678.831367493 54768117.565208
vector 288  IntersectionExampleScenario.node[40].veinsmobility  posx  ETV
vector 289  IntersectionExampleScenario.node[40].veinsmobility  posy  ETV
vector 290  IntersectionExampleScenario.node[40].veinsmobility  speed  ETV
vector 291  IntersectionExampleScenario.node[40].veinsmobility  acceleration  ETV
vector 292  IntersectionExampleScenario.node[40].veinsmobility  co2emission  ETV
vector 295  IntersectionExampleScenario.node[41].veinsmobility  posx  ETV
vector 296  IntersectionExampleScenario.node[41].veinsmobility  posy  ETV
vector 297  IntersectionExampleScenario.node[41].veinsmobility  speed  ETV
96	398815 6310 1623 8941 28 86.25 234 0.973 11.54047740176 623.41410606174 2892.8277595835
95	405125 5909 1623 8941 28 86.25 234 -4.5 2.5 40.038900375366 473.08323057623
94	411034 6145 1600 8941 27.75 86.25 235 0 15.712447166443 2282.4458401017 32721.937567811
93	417179 7050 1577 8941 27.5 86.25 236 168.58435058594 734.16610717773 105723.88748169 51852764.99578
92	424229 7080 1577 8941 27.5 86.25 236 486.85000610352 486.85000610352 114896.60144043 55937411.112546
vector 302  IntersectionExampleScenario.node[42].veinsmobility  posx  ETV
vector 303  IntersectionExampleScenario.node[42].veinsmobility  posy  ETV
vector 298  IntersectionExampleScenario.node[41].veinsmobility  acceleration  ETV
vector 299  IntersectionExampleScenario.node[41].veinsmobility  co2emission  ETV
82	431624 6439 1416 8978 25.5 86.5 245 0.973 10.916047529558 581.17757731314 2554.0106815932
81	438063 5685 1416 8978 25.5 86.5 245 -7.815390586853 4 34.267293930054 448.84469127285
80	443748 6091 1395 8978 25.25 86.5 246 0 14.625 2179.6677112579 28929.234152605
79	449839 7384 1374 8978 25 86.5 247 184.17810058594 483.36395263672 103958.77963257 45847391.07436
78	457223 7345 1374 8978 25 86.5 247 486.85000610352 734.07568359375 129052.16920471 68562392.682443
vector 304  IntersectionExampleScenario.node[42].veinsmobility  speed  ETV
vector 305  IntersectionExampleScenario.node[42].veinsmobility  acceleration  ETV
vector 306  IntersectionExampleScenario.node[42].veinsmobility  co2emission  ETV
103	464809 6618 1921 9340 31.25 89 232 0.973 11.200708441096 594.26020451071 2806.3345223888
102	471427 6800 1921 9340 31.25 89 232 -3.8316826820374 2.5 37.32285118103 339.79534673931
101	478227 7047 1898 9340 31 89 233 0 15.424119949341 2295.5313584823 30743.34733957
100	485274 7220 1875 9340 30.75 89 234 165.1328125 734.30711364746 103880.97236633 50788788.30986
99	492494 7019 1875 9340 30.75 89 234 486.85000610352 486.85000610352 113922.90142822 55463365.25566
vector 309  IntersectionExampleScenario.node[43].veinsmobility  posx  ETV
vector 310  IntersectionExampleScenario.node[43].veinsmobility  posy  ETV
vector 311  IntersectionExampleScenario.node[43].veinsmobility  speed  ETV
vector 312  IntersectionExampleScenario.node[43].veinsmobility  acceleration  ETV
vector 313  IntersectionExampleScenario.node[43].veinsmobility  co2emission  ETV
194	499904 4509 4095 9698 53.25 91.75 155 0.973 12.099024792222 560.23369329184 3423.9078649435
193	504413 4310 4095 9698 53.25 91.75 155 -3.866081237793 2.5 41.057420730591 370.94165920505
192	508723 4527 4058 9698 53 91.75 156 5.6500000953674 16.27499961853 2052.6723685265 28545.888896296
191	513250 4843 4021 9698 52.75 91.75 157 216.078125 483.14999389648 64334.747741699 27651987.919862
190	518093 4860 4021 9698 52.75 91.75 157 486.85000610352 732.06439208984 84280.798339844 46122994.871573
124	522953 5927 2883 10046 42.5 94.75 210 0.973 11.200708441096 562.69456340137 2700.8609044512
123	528880 5313 2883 10046 42.5 94.75 210 -7.5428676605225 4 35.964826583862 468.39642763928
122	534193 5750 2860 10046 42.25 94.75 211 0 15.02499961853 2206.3722958565 30287.118104959
121	539943 6562 2837 10046 42 94.75 212 237.70941162109 785.82187652588 109310.77703094 60620900.2952
120	546505 6574 2837 10046 42 94.75 212 483.14999389648 483.14999389648 102427.79870605 49487990.31966
138	553079 6182 2989 10153 43.5 95.75 210 0.973 11.810082123732 593.39392480212 2976.1615911859
137	559261 5793 2989 10153 43.5 95.75 210 -4.5 2.5 38.680875778198 473.04181736784
136	565054 6104 2960 10153 43.25 95.75 211 0 15.875 2280.7529657511 31759.367035503
135	571158 6561 2933 10153 43 95.75 212 486.85000610352 807.99687957764 119888.108284 70083231.012422
134	577719 6557 2933 10153 43 95.75 212 235.29797363281 483.14999389648 94192.981536865 42888024.216342
vector 316  IntersectionExampleScenario.node[44].veinsmobility  posx  ETV
vector 317  IntersectionExampleScenario.node[44].veinsmobility  posy  ETV
vector 318  IntersectionExampleScenario.node[44].veinsmobility  speed  ETV
vector 319  IntersectionExampleScenario.node[44].veinsmobility  acceleration  ETV
vector 320  IntersectionExampleScenario.node[44].veinsmobility  co2emission  ETV
180	584667 5200 4021 10359 52.75 97.75 181 0.973 11.450879080643 539.16260921965 2853.2634888218
179	589867 5121 4021 10359 52.75 97.75 181 -3.9016532897949 2.5 37.32285118103 304.60567171746
178	594988 5372 3986 10359 52.5 97.75 182 3.9157366752625 15.375 2210.0049934387 29196.785799942
177	600360 5685 3951 10359 52.25 97.75 183 483.14999389648 785.82187652588 103860.99727631 60770633.803049
176	606045 5670 3951 10359 52.25 97.75 183 483.14999389648 733.33787536621 96971.318664551 52411453.615714
vector 323  IntersectionExampleScenario.node[45].veinsmobility  posx  ETV
vector 324  IntersectionExampleScenario.node[45].veinsmobility  posy  ETV
vector 325  IntersectionExampleScenario.node[45].veinsmobility  speed  ETV
vector 326  IntersectionExampleScenario.node[45].veinsmobility  acceleration  ETV
vector 327  IntersectionExampleScenario.node[45].veinsmobility  co2emission  ETV
201	612106 5398 4177 10498 53.75 99 182 0.973 11.200708441096 572.85611003864 2957.6856597389
200	617504 5190 4177 10498 53.75 99 182 -4.5 2.5 38.680875778198 409.53460952501
199	622694 5471 4136 10498 53.5 99 183 3.3186218738556 15.377561569214 2308.9104456902 31557.078448191
198	628165 5691 4095 10498 53.25 99 184 235.95336914062 807.99687957764 98272.895622253 57150046.207356
197	633856 5723 4095 10498 53.25 99 184 483.14999389648 483.14999389648 88899.598876953 42951840.6548
222	639579 4735 5356 10886 61.5 102.5 165 0.973 11.810082123732 540.29294207103 3362.2236852317
221	644314 4697 5356 10886 61.5 102.5 165 -3.7367286682129 2.5 38.511121749878 331.70016032458
220	649011 4851 5317 10886 61.25 102.5 166 5.6500000953674 15.875 2189.9525842667 30189.031258541
219	653862 5210 5278 10886 61 102.5 167 486.85000610352 785.82187652588 95571.56023407 56442610.91813
218	659072 5214 5278 10886 61 102.5 167 235.16607666016 483.14999389648 72416.4480896 32355744.175898
159	664286 5905 3746 10936 50.5 103 211 0.973 11.810082123732 588.65880138711 3059.8089474695
158	670191 5406 3746 10936 50.5 103 211 -8.1522026062012 4 39.529638290405 490.76485281618
157	675597 5644 3719 10936 50.25 103 212 0 15.875 2178.6905882359 31101.662243919
156	681241 6579 3692 10936 50 103 213 236.61950683594 483.14999389648 94859.99105835 43260294.791234
155	687820 6630 3692 10936 50 103 213 184.17810058594 483.36395263672 88577.067993164 38780610.03475
152	694450 6205 3692 11085 50 104.5 219 0.973 11.200708441096 579.35689023105 2722.9320371733
151	700655 5691 3692 11085 50 104.5 219 -8.4870567321777 4 37.15309715271 463.17355536273
150	706346 6125 3667 11085 49.75 104.5 220 0 15.216687202454 2210.1070206165 30404.875949703
149	712471 6911 3641 11085 49.5 104.5 221 486.85000610352 486.85000610352 107593.85134888 52382067.185901
148	719382 6891 3641 11085 49.5 104.5 221 237.20721435547 785.82187652588 113691.1465683 62708755.142839
173	726273 6535 3951 11287 52.25 106.75 219 0.973 11.200708441096 573.95512931628 2580.9345925843
172	732808 6552 3951 11287 52.25 106.75 219 -4.5 2.5 35.964826583862 384.66866835293
171	739360 6878 3920 11287 52 106.75 220 0 15.02499961853 2287.0607135668 30765.131147938
170	746238 6930 3889 11287 51.75 106.75 221 486.85000610352 486.85000610352 107593.85134888 52382067.185901
169	753168 6908 3889 11287 51.75 106.75 221 235.3994140625 802.70781707764 115427.46391296 64998944.729696
215	760076 5329 5278 11308 61 107 185 0.973 11.90022389248 568.51648532958 2949.422359845
214	765405 4963 5278 11308 61 107 185 -2.9587020874023 2.5 41.396924972534 313.77778847473
213	770368 5543 5241 11308 60.75 107 186 3.4109764099121 16.004396438599 2208.9912047386 29597.226545443
212	775911 5869 5204 11308 60.5 107 187 483.14999389648 733.42687988281 98397.565261841 52769366.903585
211	781780 5847 5204 11308 60.5 107 187 184.17810058594 486.8766784668 75234.287963867 32075879.274276
208	787627 6238 4177 11329 53.75 107.25 215 0.973 10.916047529558 545.91515839503 2487.5525801899
207	793865 6292 4177 11329 53.75 107.25 215 -3.8602509498596 2.5 34.267293930054 321.68320303891
206	800157 6521 4136 11329 53.5 107.25 216 0 14.625 2234.8712000102 28732.482105209
205	806678 6788 4095 11329 53.25 107.25 217 234.99114990234 483.14999389648 95973.202728271 43549190.385201
204	813466 6774 4095 11329 53.25 107.25 217 172.9296875 483.14999389648 88318.225921631 38089238.990441
vector 330  IntersectionExampleScenario.node[46].veinsmobility  posx  ETV
vector 331  IntersectionExampleScenario.node[46].veinsmobility  posy  ETV
vector 332  IntersectionExampleScenario.node[46].veinsmobility  speed  ETV
vector 333  IntersectionExampleScenario.node[46].veinsmobility  acceleration  ETV
vector 334  IntersectionExampleScenario.node[46].veinsmobility  co2emission  ETV
229	820631 4902 6387 11486 68.5 109 163 0.973 11.648172402475 588.61601338375 3613.1410621102
228	825533 4444 6387 11486 68.5 109 163 -4.5 2.5 39.529638290405 454.51738203277
227	829977 5080 6352 11486 68.25 109 164 4.4408373832703 15.64999961853 2179.0661091805 30612.327718677
226	835057 5199 6317 11486 68 109 165 486.85000610352 731.87251281738 88293.31086731 48157531.797046
225	840256 5198 6317 11486 68 109 165 486.81814575195 785.82187652588 94361.81653595 55701289.9213
vector 337  IntersectionExampleScenario.node[47].veinsmobility  posx  ETV
vector 338  IntersectionExampleScenario.node[47].veinsmobility  posy  ETV
236	845604 4836 6460 11555 69 109.75 164 0.973 11.54047740176 518.29877018851 2997.0561852686
235	850440 4684 6460 11555 69 109.75 164 -2.8489952087402 2.5 37.32285118103 259.66961191086
234	855124 4978 6424 11555 68.75 109.75 165 5.6500000953674 15.5 2215.3542900085 30433.087162463
233	860102 5249 6387 11555 68.5 109.75 166 483.14999389648 483.14999389648 80202.898986816 38750030.155961
232	865351 5209 6387 11555 68.5 109.75 166 184.17810058594 732.8745880127 74042.119522095 37238380.806925
vector 339  IntersectionExampleScenario.node[47].veinsmobility  speed  ETV
vector 340  IntersectionExampleScenario.node[47].veinsmobility  acceleration  ETV
vector 341  IntersectionExampleScenario.node[47].veinsmobility  co2emission  ETV
vector 344  IntersectionExampleScenario.node[48].veinsmobility  posx  ETV
vector 345  IntersectionExampleScenario.node[48].veinsmobility  posy  ETV
vector 346  IntersectionExampleScenario.node[48].veinsmobility  speed  ETV
vector 347  IntersectionExampleScenario.node[48].veinsmobility  acceleration  ETV
vector 348  IntersectionExampleScenario.node[48].veinsmobility  co2emission  ETV
243	871192 4863 6873 11725 72 111.5 159 0.973 11.200708441096 464.51986438163 2277.9195179631
242	876055 4707 6873 11725 72 111.5 159 -2.9364318847656 2.5 38.171613693237 166.77275733694
241	880762 4861 6838 11725 71.75 111.5 160 5.6500000953674 15.256843566895 2261.9652013779 32578.613148049
240	885623 5107 6803 11725 71.5 111.5 161 483.14999389648 483.14999389648 77787.149017334 37582860.57295
239	890730 5071 6803 11725 71.5 111.5 161 171.40313720703 731.6378326416 71040.331375122 35750583.306114
vector 351  IntersectionExampleScenario.node[49].veinsmobility  posx  ETV
vector 352  IntersectionExampleScenario.node[49].veinsmobility  posy  ETV
vector 353  IntersectionExampleScenario.node[49].veinsmobility  speed  ETV
vector 354  IntersectionExampleScenario.node[49].veinsmobility  acceleration  ETV
vector 355  IntersectionExampleScenario.node[49].veinsmobility  co2emission  ETV
vector 358  IntersectionExampleScenario.node[50].veinsmobility  posx  ETV
vector 359  IntersectionExampleScenario.node[50].veinsmobility  posy  ETV
vector 360  IntersectionExampleScenario.node[50].veinsmobility  speed  ETV
vector 361  IntersectionExampleScenario.node[50].veinsmobility  acceleration  ETV
vector 362  IntersectionExampleScenario.node[50].veinsmobility  co2emission  ETV
166	896583 7159 3831 12232 51.25 116.25 261 0.973 11.450879080643 699.19683838255 3584.051652999
165	903742 6449 3831 12232 51.25 116.25 261 -41.442188262939 4 38.001859664917 2244.1139430748
164	910191 6819 3802 12232 51 116.25 262 0 15.375 2210.0905117989 29892.545626295
163	917010 8280 3773 12232 50.75 116.25 263 184.17810058594 732.3010559082 117861.70166016 57490537.129293
162	925290 8307 3773 12232 50.75 116.25 263 486.85000610352 486.85000610352 128041.55160522 62337030.180507
vector 365  IntersectionExampleScenario.node[51].veinsmobility  posx  ETV
vector 366  IntersectionExampleScenario.node[51].veinsmobility  posy  ETV
vector 372  IntersectionExampleScenario.node[52].veinsmobility  posx  ETV
vector 373  IntersectionExampleScenario.node[52].veinsmobility  posy  ETV
vector 367  IntersectionExampleScenario.node[51].veinsmobility  speed  ETV
vector 374  IntersectionExampleScenario.node[52].veinsmobility  speed  ETV
vector 368  IntersectionExampleScenario.node[51].veinsmobility  acceleration  ETV
vector 369  IntersectionExampleScenario.node[51].veinsmobility  co2emission  ETV
vector 375  IntersectionExampleScenario.node[52].veinsmobility  acceleration  ETV
vector 376  IntersectionExampleScenario.node[52].veinsmobility  co2emission  ETV
vector 379  IntersectionExampleScenario.node[53].veinsmobility  posx  ETV
vector 380  IntersectionExampleScenario.node[53].veinsmobility  posy  ETV
vector 381  IntersectionExampleScenario.node[53].veinsmobility  speed  ETV
vector 382  IntersectionExampleScenario.node[53].veinsmobility  acceleration  ETV
vector 383  IntersectionExampleScenario.node[53].veinsmobility  co2emission  ETV
187	934770 7258 4021 12437 52.75 118 262 0.973 10.65035628006 675.79683675031 3124.3433775932
186	942028 6833 4021 12437 52.75 118 262 -4.5 2.5 38.850629806519 567.82018299836
185	948861 7157 3986 12437 52.5 118 263 0 15.418863296509 2290.7278627008 31005.319909231
184	956018 8327 3951 12437 52.25 118 264 163.88433837891 732.4274597168 116817.49290466 56615964.842804
183	964345 8352 3951 12437 52.25 118 264 486.85000610352 486.85000610352 128528.40161133 62574053.10895
vector 386  IntersectionExampleScenario.node[54].veinsmobility  posx  ETV
vector 387  IntersectionExampleScenario.node[54].veinsmobility  posy  ETV
vector 388  IntersectionExampleScenario.node[54].veinsmobility  speed  ETV
vector 389  IntersectionExampleScenario.node[54].veinsmobility  acceleration  ETV
vector 390  IntersectionExampleScenario.node[54].veinsmobility  co2emission  ETV
vector 393  IntersectionExampleScenario.node[55].veinsmobility  posx  ETV
vector 394  IntersectionExampleScenario.node[55].veinsmobility  posy  ETV
vector 395  IntersectionExampleScenario.node[55].veinsmobility  speed  ETV
vector 396  IntersectionExampleScenario.node[55].veinsmobility  acceleration  ETV
vector 397  IntersectionExampleScenario.node[55].veinsmobility  co2emission  ETV
271	973479 5238 7762 12821 78.25 121.25 173 0.973 11.36141391502 546.66262302929 3006.4451503744
270	978717 4950 7762 12821 78.25 121.25 173 -3.0056686401367 2.5 37.32285118103 331.87858851268
269	983667 5262 7723 12821 78 121.25 174 5.6500000953674 15.25 2190.1683850288 29207.02055572
268	988929 5588 7684 12821 77.75 121.25 175 184.17810058594 483.15048217773 69897.518890381 29691599.618827
267	994517 5615 7684 12821 77.75 121.25 175 486.85000610352 734.78398132324 93629.079284668 51076760.468163
285	1000132 5063 8214 12880 81.25 121.75 163 0.973 11.54047740176 531.27134024553 2884.3708283617
284	1005195 4778 8214 12880 81.25 121.75 163 -4.5 2.5 39.699392318726 285.94477063441
283	1009973 5053 8175 12880 81 121.75 164 5.6500000953674 15.644317626953 2269.7859420776 32326.406376706
282	1015026 5282 8136 12880 80.75 121.75 165 171.40313720703 733.28196716309 72653.622802734 36367135.073651
281	1020308 5314 8136 12880 80.75 121.75 165 486.85000610352 486.85000610352 80330.25100708 39108783.193094
vector 400  IntersectionExampleScenario.node[56].veinsmobility  posx  ETV
vector 401  IntersectionExampleScenario.node[56].veinsmobility  posy  ETV
vector 407  IntersectionExampleScenario.node[57].veinsmobility  posx  ETV
vector 408  IntersectionExampleScenario.node[57].veinsmobility  posy  ETV
vector 414  IntersectionExampleScenario.node[58].veinsmobility  posx  ETV
vector 415  IntersectionExampleScenario.node[58].veinsmobility  posy  ETV
vector 402  IntersectionExampleScenario.node[56].veinsmobility  speed  ETV
vector 409  IntersectionExampleScenario.node[57].veinsmobility  speed  ETV
vector 403  IntersectionExampleScenario.node[56].veinsmobility  acceleration  ETV
vector 404  IntersectionExampleScenario.node[56].veinsmobility  co2emission  ETV
vector 410  IntersectionExampleScenario.node[57].veinsmobility  acceleration  ETV
vector 411  IntersectionExampleScenario.node[57].veinsmobility  co2emission  ETV
vector 416  IntersectionExampleScenario.node[58].veinsmobility  speed  ETV
vector 417  IntersectionExampleScenario.node[58].veinsmobility  acceleration  ETV
vector 418  IntersectionExampleScenario.node[58].veinsmobility  co2emission  ETV
250	1026795 5970 7282 13371 75 126 205 0.973 11.90022389248 588.16640992329 3109.1702476542
249	1032765 5485 7282 13371 75 126 205 -7.2641291618347 4 39.699392318726 488.74806203163
248	1038250 5786 7245 13371 74.75 126 206 0 16 2217.2994669676 32035.832177997
247	1044036 6637 7210 13371 74.5 126 207 235.46020507812 785.82187652588 106745.40287018 59172107.197137
246	1050673 6648 7210 13371 74.5 126 207 483.14999389648 483.14999389648 100012.04873657 48320820.73665
299	1057321 5125 8978 13712 86.5 128.75 170 0.93438186594183 12.26218747632 566.77928208279 3451.3700605993
298	1062446 5082 8978 13712 86.5 128.75 170 -3.027379989624 2.5 41.057416915894 357.28091468606
297	1067528 5221 8941 13712 86.25 128.75 171 5.4822015762329 16.5 2191.7163558006 30486.773787816
296	1072749 5574 8904 13712 86 128.75 172 486.85000610352 785.82187652588 98013.387382507 57580086.26344
295	1078323 5581 8904 13712 86 128.75 172 235.44848632812 483.14999389648 75165.380065918 33787428.531051
vector 421  IntersectionExampleScenario.node[59].veinsmobility  posx  ETV
vector 422  IntersectionExampleScenario.node[59].veinsmobility  posy  ETV
vector 423  IntersectionExampleScenario.node[59].veinsmobility  speed  ETV
vector 424  IntersectionExampleScenario.node[59].veinsmobility  acceleration  ETV
vector 425  IntersectionExampleScenario.node[59].veinsmobility  co2emission  ETV
306	1084295 5662 9053 14184 87 132.5 183 0.973 11.413173717269 555.55662883625 2917.9405042341
305	1089957 5528 9053 14184 87 132.5 183 -4.5 2.5 36.98334312439 378.4192160353
304	1095485 5681 9016 14184 86.75 132.5 184 5.5339779853821 15.322340965271 2277.2685713768 30046.59949756
303	1101166 6007 8978 14184 86.5 132.5 185 486.82763671875 809.56562805176 107453.32794189 64609468.239167
302	1107173 5970 8978 14184 86.5 132.5 185 237.07879638672 483.14999389648 81037.860534668 36487219.63242
292	1113143 5985 8794 14522 85.25 135.25 201 0.973 11.648172402475 570.23596353784 2916.0678110903
291	1119128 5387 8794 14522 85.25 135.25 201 -7.03919506073 4 38.341367721558 476.33694168539
290	1124515 5772 8757 14522 85 135.25 202 0 15.64999961853 2177.4668385983 30628.127941716
289	1130287 6529 8720 14522 84.75 135.25 203 486.85000610352 733.04777526855 107012.29904175 57420612.957135
288	1136816 6595 8720 14522 84.75 135.25 203 486.63604736328 785.82187652588 113159.1578598 64999269.608785
264	1143411 6730 7536 14551 76.75 135.5 236 0.973 11.36141391502 612.59461078783 3037.1606947636
263	1150141 5893 7536 14551 76.75 135.5 236 -30.854080200195 4 37.32285118103 1334.0034196703
262	1156034 6273 7499 14551 76.5 135.5 237 0 15.25 2120.2536506653 29639.065674516
261	1162307 7622 7462 14551 76.25 135.5 238 236.31317138672 483.14999389648 106638.87109375 48858596.793827
260	1169929 7682 7462 14551 76.25 135.5 238 198.09222412109 483.36395263672 101291.57293701 44912908.157331
vector 428  IntersectionExampleScenario.node[60].veinsmobility  posx  ETV
vector 429  IntersectionExampleScenario.node[60].veinsmobility  posy  ETV
vector 430  IntersectionExampleScenario.node[60].veinsmobility  speed  ETV
vector 431  IntersectionExampleScenario.node[60].veinsmobility  acceleration  ETV
vector 432  IntersectionExampleScenario.node[60].veinsmobility  co2emission  ETV
327	1178002 4845 10498 14755 99 137.25 154 0.973 12.099024792222 565.25621548657 3623.5428692017
326	1182847 4482 10498 14755 99 137.25 154 -3.958381652832 2.5000038146973 41.566686630249 333.84303346003
325	1187329 4865 10469 14755 98.75 137.25 155 5.6500000953674 16.27499961853 2212.6031236649 32555.058710198
324	1192194 5142 10440 14755 98.5 137.25 156 486.85000610352 486.85000610352 75948.600952148 36975576.837107
323	1197336 5133 10440 14755 98.5 137.25 156 237.83770751953 785.82187652588 81804.266838074 46878134.884281
vector 435  IntersectionExampleScenario.node[61].veinsmobility  posx  ETV
vector 436  IntersectionExampleScenario.node[61].veinsmobility  posy  ETV
vector 437  IntersectionExampleScenario.node[61].veinsmobility  speed  ETV
257	1202695 7178 7319 14815 75.25 137.75 251 0.973 11.36141391502 651.11873090676 3086.8964926782
256	1209873 6608 7319 14815 75.25 137.75 251 -4.5 2.5 39.529638290405 520.82452714981
255	1216481 6913 7282 14815 75 137.75 252 0 15.597789764404 2254.5330243111 31356.943296079
254	1223394 8162 7245 14815 74.75 137.75 253 236.47863769531 483.14999389648 114167.35153198 52582374.102139
253	1231556 8161 7245 14815 74.75 137.75 253 166.54217529297 483.21166992188 103775.08578491 45164246.859306
vector 438  IntersectionExampleScenario.node[61].veinsmobility  acceleration  ETV
vector 439  IntersectionExampleScenario.node[61].veinsmobility  co2emission  ETV
vector 442  IntersectionExampleScenario.node[62].veinsmobility  posx  ETV
vector 443  IntersectionExampleScenario.node[62].veinsmobility  posy  ETV
vector 444  IntersectionExampleScenario.node[62].veinsmobility  speed  ETV
vector 449  IntersectionExampleScenario.node[63].veinsmobility  posx  ETV
vector 450  IntersectionExampleScenario.node[63].veinsmobility  posy  ETV
vector 445  IntersectionExampleScenario.node[62].veinsmobility  acceleration  ETV
vector 446  IntersectionExampleScenario.node[62].veinsmobility  co2emission  ETV
vector 451  IntersectionExampleScenario.node[63].veinsmobility  speed  ETV
vector 452  IntersectionExampleScenario.node[63].veinsmobility  acceleration  ETV
vector 453  IntersectionExampleScenario.node[63].veinsmobility  co2emission  ETV
vector 456  IntersectionExampleScenario.node[64].veinsmobility  posx  ETV
vector 457  IntersectionExampleScenario.node[64].veinsmobility  posy  ETV
278	1240814 7453 7914 15149 79.25 140.25 245 0.973 11.093806525473 598.32240153342 2666.4592934624
277	1248267 7532 7914 15149 79.25 140.25 245 -4.3858413696289 2.5000009536743 35.795072555542 362.40013503942
276	1255799 7768 7876 15149 79 140.25 246 0 14.875 2290.2244932447 30370.348343693
275	1263567 8003 7837 15149 78.75 140.25 247 483.14999389648 483.14999389648 119338.04849243 57658177.400737
274	1271570 7981 7837 15149 78.75 140.25 247 164.48052978516 732.51634216309 109873.13790894 53612298.361032
vector 458  IntersectionExampleScenario.node[64].veinsmobility  speed  ETV
vector 459  IntersectionExampleScenario.node[64].veinsmobility  acceleration  ETV
vector 460  IntersectionExampleScenario.node[64].veinsmobility  co2emission  ETV
vector 463  IntersectionExampleScenario.node[65].veinsmobility  posx  ETV
vector 464  IntersectionExampleScenario.node[65].veinsmobility  posy  ETV
vector 465  IntersectionExampleScenario.node[65].veinsmobility  speed  ETV
vector 466  IntersectionExampleScenario.node[65].veinsmobility  acceleration  ETV
vector 467  IntersectionExampleScenario.node[65].veinsmobility  co2emission  ETV
vector 470  IntersectionExampleScenario.node[66].veinsmobility  posx  ETV
vector 471  IntersectionExampleScenario.node[66].veinsmobility  posy  ETV
vector 472  IntersectionExampleScenario.node[66].veinsmobility  speed  ETV
vector 473  IntersectionExampleScenario.node[66].veinsmobility  acceleration  ETV
vector 474  IntersectionExampleScenario.node[66].veinsmobility  co2emission  ETV
vector 477  IntersectionExampleScenario.node[67].veinsmobility  posx  ETV
vector 478  IntersectionExampleScenario.node[67].veinsmobility  posy  ETV
vector 479  IntersectionExampleScenario.node[67].veinsmobility  speed  ETV
vector 480  IntersectionExampleScenario.node[67].veinsmobility  acceleration  ETV
vector 481  IntersectionExampleScenario.node[67].veinsmobility  co2emission  ETV
vector 484  IntersectionExampleScenario.node[68].veinsmobility  posx  ETV
vector 485  IntersectionExampleScenario.node[68].veinsmobility  posy  ETV
vector 486  IntersectionExampleScenario.node[68].veinsmobility  speed  ETV
vector 487  IntersectionExampleScenario.node[68].veinsmobility  acceleration  ETV
vector 488  IntersectionExampleScenario.node[68].veinsmobility  co2emission  ETV
313	1281356 6650 9667 16380 91.5 148.25 228 0.973 11.648172402475 596.88172639663 2955.7459356755
312	1288006 6059 9667 16380 91.5 148.25 228 -7.4922728538513 4 38.171613693237 481.23649532449
311	1294065 6365 9635 16380 91.25 148.25 229 0 15.64999961853 2197.6316298246 30998.859506652
310	1300430 7510 9602 16380 91 148.25 230 184.17810058594 486.85000610352 96710.870361328 42701909.625304
309	1307940 7534 9602 16380 91 148.25 230 237.83361816406 486.85000610352 103614.55828857 47761603.870846
334	1315474 5424 11417 16897 108.25 151.75 175 0.973 11.36141391502 538.39420465142 2928.5161793104
333	1320898 5325 11417 16897 108.25 151.75 175 -2.9423580169678 2.5 36.813589096069 324.38636887992
332	1326223 5487 11394 16897 108 151.75 176 5.6500000953674 15.25 2182.7309207916 28887.195290537
331	1331710 5814 11371 16897 107.75 151.75 177 184.17810058594 483.26165771484 70784.586090088 30088352.99437
330	1337524 5833 11371 16897 107.75 151.75 177 486.85000610352 732.77021789551 94531.194244385 51458886.285959
vector 491  IntersectionExampleScenario.node[69].veinsmobility  posx  ETV
vector 492  IntersectionExampleScenario.node[69].veinsmobility  posy  ETV
341	1343507 5338 11605 16963 110.25 152.25 169 0.973 11.990504229548 571.58841322791 3256.7138874401
340	1348845 5064 11605 16963 110.25 152.25 169 -4.5 2.5 39.869146347046 402.13302017572
339	1353909 5349 11580 16963 110 152.25 170 5.5727434158325 16.125 2295.5862698555 32513.545097977
338	1359258 5597 11555 16963 109.75 152.25 171 166.078125 734.57752990723 74906.143218994 37329018.31363
337	1364855 5643 11555 16963 109.75 152.25 171 486.85000610352 486.85000610352 83251.351043701 40530920.763752
vector 493  IntersectionExampleScenario.node[69].veinsmobility  speed  ETV
vector 494  IntersectionExampleScenario.node[69].veinsmobility  acceleration  ETV
vector 495  IntersectionExampleScenario.node[69].veinsmobility  co2emission  ETV
vector 498  IntersectionExampleScenario.node[70].veinsmobility  posx  ETV
vector 499  IntersectionExampleScenario.node[70].veinsmobility  posy  ETV
vector 500  IntersectionExampleScenario.node[70].veinsmobility  speed  ETV
vector 501  IntersectionExampleScenario.node[70].veinsmobility  acceleration  ETV
vector 502  IntersectionExampleScenario.node[70].veinsmobility  co2emission  ETV
vector 505  IntersectionExampleScenario.node[71].veinsmobility  posx  ETV
vector 506  IntersectionExampleScenario.node[71].veinsmobility  posy  ETV
vector 507  IntersectionExampleScenario.node[71].veinsmobility  speed  ETV
vector 512  IntersectionExampleScenario.node[72].veinsmobility  posx  ETV
vector 513  IntersectionExampleScenario.node[72].veinsmobility  posy  ETV
vector 508  IntersectionExampleScenario.node[71].veinsmobility  acceleration  ETV
vector 509  IntersectionExampleScenario.node[71].veinsmobility  co2emission  ETV
320	1371671 6890 10332 17657 97.5 157.75 242 0.973 12.355231804452 655.18904221558 3666.34451114
319	1378561 6156 10332 17657 97.5 157.75 242 -22.458755493164 4 41.736440658569 979.02740937088
318	1384717 6521 10305 17657 97.25 157.75 243 0 16.628023147583 2210.6659955978 32835.359303848
317	1391238 8033 10278 17657 97 157.75 244 483.14999389648 785.82187652588 133017.35771942 74560749.057502
316	1399271 8034 10278 17657 97 157.75 244 483.14999389648 735.17596435547 126014.14080811 66170837.906084
vector 514  IntersectionExampleScenario.node[72].veinsmobility  speed  ETV
vector 515  IntersectionExampleScenario.node[72].veinsmobility  acceleration  ETV
vector 516  IntersectionExampleScenario.node[72].veinsmobility  co2emission  ETV
355	1407546 5876 11804 18016 112.25 160.75 195 0.973 11.36141391502 535.13877149193 2724.9257005989
354	1413422 6022 11804 18016 112.25 160.75 195 -2.0914916992188 2.5 35.964826583862 300.20678134304
353	1419444 6145 11777 18016 112 160.75 196 1.9558151960373 15.25 2189.7134650946 28130.551691954
352	1425589 6489 11750 18016 111.75 160.75 197 486.75091552734 785.82187652588 111224.52483368 64644500.929844
351	1432078 6461 11750 18016 111.75 160.75 197 235.62957763672 483.14999389648 86599.9609375 39108045.14916
vector 519  IntersectionExampleScenario.node[73].veinsmobility  posx  ETV
vector 520  IntersectionExampleScenario.node[73].veinsmobility  posy  ETV
vector 526  IntersectionExampleScenario.node[74].veinsmobility  posx  ETV
vector 527  IntersectionExampleScenario.node[74].veinsmobility  posy  ETV
vector 521  IntersectionExampleScenario.node[73].veinsmobility  speed  ETV
vector 522  IntersectionExampleScenario.node[73].veinsmobility  acceleration  ETV
vector 523  IntersectionExampleScenario.node[73].veinsmobility  co2emission  ETV
vector 528  IntersectionExampleScenario.node[74].veinsmobility  speed  ETV
404	1439156 5027 13185 18385 124.5 164.25 160 0.973 11.90022389248 512.78693288353 2714.8293169956
403	1444183 4798 13185 18385 124.5 164.25 160 -2.9929275512695 2.5 41.227170944214 226.55349832864
402	1448981 5009 13154 18385 124.25 164.25 161 5.6500000953674 16 2253.5362844467 32625.036054437
401	1453990 5328 13125 18385 124 164.25 162 483.12084960938 797.07032012939 93485.805862427 55882224.379591
400	1459318 5341 13125 18385 124 164.25 162 483.14999389648 733.18916320801 86324.258636475 46938440.504636
vector 529  IntersectionExampleScenario.node[74].veinsmobility  acceleration  ETV
vector 530  IntersectionExampleScenario.node[74].veinsmobility  co2emission  ETV
397	1464824 5390 12821 18414 121.25 164.5 174 0.973 10.916047529558 514.97815450175 2751.7051404825
396	1470214 5278 12821 18414 121.25 164.5 174 -3.2022800445557 2.5 34.267293930054 287.88025200607
395	1475492 5462 12790 18414 121 164.5 175 5.6500000953674 14.625 2177.5398192406 28195.996981854
394	1480954 5801 12759 18414 120.75 164.5 176 486.7106628418 785.82187652588 100621.05796814 59335670.154247
393	1486755 5807 12759 18414 120.75 164.5 176 238.22955322266 483.14999389648 76387.947784424 34138620.12039
vector 533  IntersectionExampleScenario.node[75].veinsmobility  posx  ETV
vector 534  IntersectionExampleScenario.node[75].veinsmobility  posy  ETV
vector 535  IntersectionExampleScenario.node[75].veinsmobility  speed  ETV
vector 536  IntersectionExampleScenario.node[75].veinsmobility  acceleration  ETV
vector 537  IntersectionExampleScenario.node[75].veinsmobility  co2emission  ETV
369	1492953 6113 12315 18745 117 167.25 202 0.973 11.648172402475 573.95202764335 2879.7093060429
368	1499066 5691 12315 18745 117 167.25 202 -7.03919506073 4 38.341367721558 475.94233611887
367	1504757 5961 12286 18745 116.75 167.25 203 0 15.64999961853 2210.6387946606 31356.10199564
366	1510718 6732 12257 18745 116.5 167.25 204 486.85000610352 486.85000610352 99317.401245117 48352677.40237
365	1517450 6710 12257 18745 116.5 167.25 204 236.98583984375 785.82187652588 105298.23473358 58505349.80624
348	1524160 6823 11725 18891 111.5 168.5 229 0.973 10.99755846604 567.88037171706 2548.3156882679
347	1530983 6251 11725 18891 111.5 168.5 229 -8.9526214599609 4 34.097539901733 460.07789882109
346	1537234 6705 11700 18891 111.25 168.5 230 0 14.739726066589 2216.1149554253 29543.230871626
345	1543939 7622 11675 18891 111 168.5 231 483.14999389648 483.14999389648 111607.64859009 53923234.735102
344	1551561 7573 11675 18891 111 168.5 231 184.17810058594 735.0732421875 105503.5599823 52613151.343076
vector 540  IntersectionExampleScenario.node[76].veinsmobility  posx  ETV
vector 541  IntersectionExampleScenario.node[76].veinsmobility  posy  ETV
vector 542  IntersectionExampleScenario.node[76].veinsmobility  speed  ETV
vector 543  IntersectionExampleScenario.node[76].veinsmobility  acceleration  ETV
vector 544  IntersectionExampleScenario.node[76].veinsmobility  co2emission  ETV
362	1559525 6733 11886 19013 113 169.5 227 0.973 11.578182041334 631.53277589486 3052.0850420455
361	1566258 6438 11886 19013 113 169.5 227 -4.5 2.5 39.610185623169 494.54192726747
360	1572696 6710 11859 19013 112.75 169.5 228 0 16.213590621948 2297.2168295532 32894.800132447
359	1579406 7557 11831 19013 112.5 169.5 229 483.14999389648 483.14999389648 110641.34860229 53456366.901897
358	1586963 7518 11831 19013 112.5 169.5 229 163.88433837891 733.71893310547 102512.28634644 50564858.052696
390	1594481 6199 12613 19044 119.5 169.75 202 0.973 10.916047529558 535.99025189526 2504.2541359518
389	1600680 6045 12613 19044 119.5 169.75 202 -3.911678314209 2.5 34.437047958374 353.7513638108
388	1606725 6397 12584 19044 119.25 169.75 203 0 14.625 2241.5084460862 29105.438119309
387	1613122 6721 12555 19044 119 169.75 204 486.85000610352 732.24401855469 107972.11584473 58193133.432318
386	1619843 6713 12555 19044 119 169.75 204 486.80615234375 801.41563415527 115916.5394516 68039539.287727
vector 547  IntersectionExampleScenario.node[77].veinsmobility  posx  ETV
vector 548  IntersectionExampleScenario.node[77].veinsmobility  posy  ETV
vector 549  IntersectionExampleScenario.node[77].veinsmobility  speed  ETV
vector 550  IntersectionExampleScenario.node[77].veinsmobility  acceleration  ETV
vector 551  IntersectionExampleScenario.node[77].veinsmobility  co2emission  ETV
418	1626947 5749 13216 19204 124.75 171 186 0.973 11.450879080643 549.39527355464 2798.6227972093
417	1632696 5740 13216 19204 124.75 171 186 -5.3764877319336 2.5 36.643835067749 350.37593761793
416	1638436 5878 13185 19204 124.5 171 187 4.0357432365417 15.375 2229.8199763298 29075.071557438
415	1644314 6195 13154 19204 124.25 171 188 236.16821289062 486.85000610352 82853.120941162 37564311.890096
414	1650509 6191 13154 19204 124.25 171 188 483.11923217773 790.85976409912 107012.79205322 62830839.491569
383	1656700 6713 12406 19297 117.75 171.75 217 0.973 11.648172402475 580.37074318571 2915.4326872054
382	1663413 6820 12406 19297 117.75 171.75 217 -4.5 2.5 38.341367721558 400.60972625264
381	1670233 7004 12375 19297 117.5 171.75 218 0 15.64999961853 2184.281709969 30226.720656533
380	1677237 7229 12344 19297 117.25 171.75 219 483.14999389648 483.14999389648 105809.84866333 51122027.735876
379	1684466 7200 12344 19297 117.25 171.75 219 192.09918212891 733.39949035645 99383.140472412 49073498.311018
vector 554  IntersectionExampleScenario.node[78].veinsmobility  posx  ETV
vector 555  IntersectionExampleScenario.node[78].veinsmobility  posy  ETV
vector 561  IntersectionExampleScenario.node[79].veinsmobility  posx  ETV
vector 562  IntersectionExampleScenario.node[79].veinsmobility  posy  ETV
vector 556  IntersectionExampleScenario.node[78].veinsmobility  speed  ETV
vector 557  IntersectionExampleScenario.node[78].veinsmobility  acceleration  ETV
vector 558  IntersectionExampleScenario.node[78].veinsmobility  co2emission  ETV
vector 563  IntersectionExampleScenario.node[79].veinsmobility  speed  ETV
376	1692283 7027 12315 19551 117 173.75 228 0.973 11.15922260758 619.95486401349 2914.5885073277
375	1699310 7239 12315 19551 117 173.75 228 -4.5 2.5 40.208654403687 417.21487900361
374	1706549 7288 12286 19551 116.75 173.75 229 0 15.812478065491 2268.6744945459 30497.596784404
373	1713837 7583 12257 19551 116.5 173.75 230 483.14999389648 732.11889648438 119252.95561218 62889054.681405
372	1721420 7564 12257 19551 116.5 173.75 230 167.83123779297 487.07272338867 92721.622741699 39702267.680449
vector 564  IntersectionExampleScenario.node[79].veinsmobility  acceleration  ETV
vector 565  IntersectionExampleScenario.node[79].veinsmobility  co2emission  ETV
411	1729149 6094 13185 19853 124.5 176 207 0.96333723109819 12.099024792222 589.69551640436 3209.6497117474
410	1735243 6436 13185 19853 124.5 176 207 -3.8889675140381 2.5 40.208654403687 385.17713572301
409	1741679 6531 13154 19853 124.25 176 208 1.7356706857681 16.27499961853 2179.5895928144 28435.949133361
408	1748210 6886 13125 19853 124 176 209 238.18579101562 483.14999389648 93092.449432373 42448531.191902
407	1755096 6860 13125 19853 124 176 209 184.17810058594 483.14999389648 84640.14944458 36049919.876181
432	1761956 5015 14726 19886 137 176.25 158 0.973 11.810082123732 520.20668692396 3001.8209474194
431	1766971 4914 14726 19886 137 176.25 158 -3.5100212097168 2.5 39.699392318726 296.11006921376
430	1771885 4922 14697 19886 136.75 176.25 159 5.6500000953674 15.989907264709 2192.5867910385 31725.744898241
429	1776807 5276 14667 19886 136.5 176.25 160 486.85000610352 735.08241271973 86044.750442505 47200621.553042
428	1782083 5272 14667 19886 136.5 176.25 160 486.68176269531 785.82187652588 91545.200538635 54111465.037809
vector 568  IntersectionExampleScenario.node[80].veinsmobility  posx  ETV
vector 569  IntersectionExampleScenario.node[80].veinsmobility  posy  ETV
vector 570  IntersectionExampleScenario.node[80].veinsmobility  speed  ETV
vector 571  IntersectionExampleScenario.node[80].veinsmobility  acceleration  ETV
vector 572  IntersectionExampleScenario.node[80].veinsmobility  co2emission  ETV
vector 575  IntersectionExampleScenario.node[81].veinsmobility  posx  ETV
vector 576  IntersectionExampleScenario.node[81].veinsmobility  posy  ETV
vector 577  IntersectionExampleScenario.node[81].veinsmobility  speed  ETV
vector 578  IntersectionExampleScenario.node[81].veinsmobility  acceleration  ETV
vector 579  IntersectionExampleScenario.node[81].veinsmobility  co2emission  ETV
vector 582  IntersectionExampleScenario.node[82].veinsmobility  posx  ETV
vector 583  IntersectionExampleScenario.node[82].veinsmobility  posy  ETV
vector 584  IntersectionExampleScenario.node[82].veinsmobility  speed  ETV
vector 585  IntersectionExampleScenario.node[82].veinsmobility  acceleration  ETV
vector 586  IntersectionExampleScenario.node[82].veinsmobility  co2emission  ETV
425	1788528 5594 14119 20248 132 178.75 188 0.973 11.810082123732 540.98643348959 3006.6560682403
424	1794122 5795 14119 20248 132 178.75 188 -2.8263359069824 2.5 39.359884262085 313.21086129474
423	1799917 5904 14086 20248 131.75 178.75 189 3.6290838718414 15.875 2185.0765142441 28455.937051857
422	1805821 6262 14053 20248 131.5 178.75 190 236.53289794922 483.14999389648 83718.599761963 37868300.899097
421	1812083 6238 14053 20248 131.5 178.75 190 184.17810058594 483.14999389648 76261.70010376 32379955.556246
481	1818321 5052 15829 21017 144.75 183.75 157 0.973 11.54047740176 465.016126076 2347.2899736174
480	1823373 4960 15829 21017 144.75 183.75 157 -3.5185508728027 2.5 36.98334312439 188.26569562962
479	1828333 4971 15790 21017 144.5 183.75 158 5.6500000953674 15.5 2225.3328170776 31907.329930018
478	1833304 5206 15751 21017 144.25 183.75 159 184.17810058594 735.40351867676 71548.414703369 36451288.274181
477	1838510 5249 15751 21017 144.25 183.75 159 486.85000610352 486.85000610352 77409.150970459 37686645.622436
vector 589  IntersectionExampleScenario.node[83].veinsmobility  posx  ETV
vector 590  IntersectionExampleScenario.node[83].veinsmobility  posy  ETV
vector 591  IntersectionExampleScenario.node[83].veinsmobility  speed  ETV
vector 592  IntersectionExampleScenario.node[83].veinsmobility  acceleration  ETV
vector 593  IntersectionExampleScenario.node[83].veinsmobility  co2emission  ETV
488	1844150 5177 16184 21493 147 187.25 162 0.973 11.810082123732 535.99382809823 2939.6622640293
487	1849327 4769 16184 21493 147 187.25 162 -4.5 2.5 39.869146347046 306.35326744777
486	1854096 5053 16143 21493 146.75 187.25 163 5.6500000953674 15.875 2257.6464419365 32745.510484732
485	1859149 5393 16102 21493 146.5 187.25 164 167.29217529297 483.14999389648 64100.973327637 27043801.872218
484	1864542 5400 16102 21493 146.5 187.25 164 486.85000610352 734.72674560547 87943.07711792 48091573.178827
vector 596  IntersectionExampleScenario.node[84].veinsmobility  posx  ETV
vector 597  IntersectionExampleScenario.node[84].veinsmobility  posy  ETV
vector 598  IntersectionExampleScenario.node[84].veinsmobility  speed  ETV
vector 599  IntersectionExampleScenario.node[84].veinsmobility  acceleration  ETV
vector 600  IntersectionExampleScenario.node[84].veinsmobility  co2emission  ETV
vector 603  IntersectionExampleScenario.node[85].veinsmobility  posx  ETV
vector 604  IntersectionExampleScenario.node[85].veinsmobility  posy  ETV
vector 605  IntersectionExampleScenario.node[85].veinsmobility  speed  ETV
vector 606  IntersectionExampleScenario.node[85].veinsmobility  acceleration  ETV
vector 607  IntersectionExampleScenario.node[85].veinsmobility  co2emission  ETV
439	1870724 6453 14846 21989 138 191.25 214 0.973 11.00486315618 551.62176383004 2569.7155571061
438	1877177 6284 14846 21989 138 191.25 214 -6.6662321090698 4 33.927785873413 435.67354132752
437	1883461 6298 14815 21989 137.75 191.25 215 0 14.75 2206.4606280327 29379.662087135
436	1889759 7113 14784 21989 137.5 191.25 216 237.69488525391 785.82187652588 111297.37182617 61718088.783214
435	1896872 7128 14784 21989 137.5 191.25 216 483.14999389648 483.14999389648 104360.39868164 50421725.986069
vector 610  IntersectionExampleScenario.node[86].veinsmobility  posx  ETV
vector 611  IntersectionExampleScenario.node[86].veinsmobility  posy  ETV
vector 612  IntersectionExampleScenario.node[86].veinsmobility  speed  ETV
vector 613  IntersectionExampleScenario.node[86].veinsmobility  acceleration  ETV
vector 614  IntersectionExampleScenario.node[86].veinsmobility  co2emission  ETV
vector 617  IntersectionExampleScenario.node[87].veinsmobility  posx  ETV
vector 618  IntersectionExampleScenario.node[87].veinsmobility  posy  ETV
vector 619  IntersectionExampleScenario.node[87].veinsmobility  speed  ETV
453	1904617 6848 15044 22892 139.5 199.25 240 0.97223939240464 11.648172402475 616.43165574412 3171.4889858222
452	1911465 6454 15044 22892 139.5 199.25 240 -9.1478986740112 4 38.680875778198 502.34077932176
451	1917919 6775 15009 22892 139.25 199.25 241 0 15.64999961853 2219.0254180431 30282.907104608
450	1924694 7985 14974 22892 139 199.25 242 483.14999389648 483.14999389648 116922.29852295 56491007.817726
449	1932679 7952 14974 22892 139 199.25 242 184.17810058594 734.53523254395 110094.67903137 54288415.2767
vector 620  IntersectionExampleScenario.node[87].veinsmobility  acceleration  ETV
vector 621  IntersectionExampleScenario.node[87].veinsmobility  co2emission  ETV
467	1940796 6657 15449 22919 142.25 199.5 230 0.973 11.36141391502 579.52815900345 2811.1364032934
466	1947453 6158 15449 22919 142.25 199.5 230 -23.248428344727 4 37.15309715271 915.29919978662
465	1953611 6282 15410 22919 142 199.5 231 0 15.25 2055.4834861755 28496.766728462
464	1959893 7594 15371 22919 141.75 199.5 232 486.85000610352 733.15849304199 121286.53985596 64473120.491707
463	1967487 7639 15371 22919 141.75 199.5 232 486.63604736328 756.12032318115 125370.82933807 69296143.109292
446	1975126 7657 14974 23151 139 201.75 252 0.973 11.36141391502 666.61378298129 3173.4663653883
445	1982783 7688 14974 23151 139 201.75 252 -4.5 2.5000009536743 38.680875778198 530.70153618968
444	1990471 7760 14941 23151 138.75 201.75 253 0 15.388696670532 2263.3488718625 30456.059638465
443	1998231 8379 14908 23151 138.5 201.75 254 486.85000610352 735.17655944824 131942.35296631 69634290.699687
442	2006610 8357 14908 23151 138.5 201.75 254 486.85000610352 803.92188262939 142444.2881012 82471250.584731
495	2014967 5984 17030 23176 152.75 202 198 0.973 11.200708441096 545.67234137635 2718.7450796741
494	2020951 6323 17030 23176 152.75 202 198 -2.1334838867188 2.5 36.98334312439 289.59711838796
493	2027274 6428 16997 23176 152.5 202 199 1.6790161132812 15.419544219971 2223.2161538601 29260.842763526
492	2033702 6600 16963 23176 152.25 202 200 483.14999389648 483.14999389648 96629.998779297 46686783.320434
491	2040302 6562 16963 23176 152.25 202 200 184.17810058594 735.2788848877 90001.692153931 44767874.642589
vector 624  IntersectionExampleScenario.node[88].veinsmobility  posx  ETV
vector 625  IntersectionExampleScenario.node[88].veinsmobility  posy  ETV
vector 626  IntersectionExampleScenario.node[88].veinsmobility  speed  ETV
vector 627  IntersectionExampleScenario.node[88].veinsmobility  acceleration  ETV
vector 628  IntersectionExampleScenario.node[88].veinsmobility  co2emission  ETV
516	2047255 5801 17720 23486 158.25 205 188 0.973 11.200708441096 541.5572966418 2785.0722275925
515	2053056 5581 17720 23486 158.25 205 188 -3.5974445343018 2.5 35.625318527222 331.53087522887
514	2058637 5925 17689 23486 158 205 189 5.3565492630005 15.02499961853 2181.5732822418 27441.957707768
513	2064562 6259 17657 23486 157.75 205 190 237.39959716797 483.14999389648 83281.559967041 37514113.869812
512	2070821 6249 17657 23486 157.75 205 190 184.17810058594 483.25427246094 76140.952331543 32319052.212376
460	2077070 7981 15223 23513 140.75 205.25 259 0.973 11.36141391502 622.28983808861 2734.0722207201
459	2085051 8254 15223 23513 140.75 205.25 259 -4.5 2.5 36.474081039429 401.85460927314
458	2093305 8160 15186 23513 140.5 205.25 260 0 15.25 2304.4491907079 29907.030456799
457	2101465 8606 15149 23513 140.25 205.25 261 486.85000610352 734.91026306152 135609.88323975 71590620.629143
456	2110071 8583 15149 23513 140.25 205.25 261 486.85000610352 814.10782623291 147595.42321777 86219073.844869
vector 631  IntersectionExampleScenario.node[89].veinsmobility  posx  ETV
vector 632  IntersectionExampleScenario.node[89].veinsmobility  posy  ETV
vector 633  IntersectionExampleScenario.node[89].veinsmobility  speed  ETV
vector 634  IntersectionExampleScenario.node[89].veinsmobility  acceleration  ETV
vector 635  IntersectionExampleScenario.node[89].veinsmobility  co2emission  ETV
537	2119045 5018 18621 23672 166.25 206.75 163 0.973 11.230116336586 493.74676701238 2810.2933388316
536	2124063 4937 18621 23672 166.25 206.75 163 -3.3524513244629 2.5 35.964826583862 239.37988584332
535	2129000 5192 18590 23672 166 206.75 164 5.6500000953674 15.066217422485 2217.2697076797 30532.88630623
534	2134192 5446 18559 23672 165.75 206.75 165 483.14999389648 483.14999389648 79719.74899292 38516596.239358
533	2139638 5402 18559 23672 165.75 206.75 165 184.17810058594 733.53080749512 73883.653549194 37373812.32196
vector 638  IntersectionExampleScenario.node[90].veinsmobility  posx  ETV
vector 639  IntersectionExampleScenario.node[90].veinsmobility  posy  ETV
474	2145190 8098 15639 23753 143.5 207.5 257 0.973 11.36141391502 641.52617113695 2785.3661373854
473	2153288 7988 15639 23753 143.5 207.5 257 -4.5 2.5 38.341367721558 429.74874215213
472	2161276 8167 15600 23753 143.25 207.5 258 0 15.318150520325 2302.3846715465 30328.36478567
471	2169443 8517 15561 23753 143 207.5 259 486.85000610352 734.17204284668 134356.26383972 70790631.486284
470	2177960 8528 15561 23753 143 207.5 259 486.83102416992 814.54285430908 146401.82258606 85332460.26877
vector 640  IntersectionExampleScenario.node[90].veinsmobility  speed  ETV
vector 641  IntersectionExampleScenario.node[90].veinsmobility  acceleration  ETV
vector 642  IntersectionExampleScenario.node[90].veinsmobility  co2emission  ETV
vector 645  IntersectionExampleScenario.node[91].veinsmobility  posx  ETV
vector 646  IntersectionExampleScenario.node[91].veinsmobility  posy  ETV
vector 647  IntersectionExampleScenario.node[91].veinsmobility  speed  ETV
vector 648  IntersectionExampleScenario.node[91].veinsmobility  acceleration  ETV
vector 649  IntersectionExampleScenario.node[91].veinsmobility  co2emission  ETV
502	2187120 6774 17133 24055 153.5 210 227 0.973 11.648172402475 579.74534362831 2895.5860919864
501	2193894 6944 17133 24055 153.5 210 227 -3.7961733341217 2.5 38.341367721558 329.00136408284
500	2200838 7196 17098 24055 153.25 210 228 0 15.64999961853 2187.9856089354 28120.757119618
499	2208034 7529 17063 24055 153 210 229 486.85000610352 733.95719909668 119735.24465942 63661288.329513
498	2215563 7530 17063 24055 153 210 229 486.85000610352 785.82187652588 128490.55948639 73931232.351929
vector 652  IntersectionExampleScenario.node[92].veinsmobility  posx  ETV
vector 653  IntersectionExampleScenario.node[92].veinsmobility  posy  ETV
vector 654  IntersectionExampleScenario.node[92].veinsmobility  speed  ETV
vector 655  IntersectionExampleScenario.node[92].veinsmobility  acceleration  ETV
vector 656  IntersectionExampleScenario.node[92].veinsmobility  co2emission  ETV
509	2223484 6615 17657 24440 157.75 213 222 0.973 11.200708441096 571.12012624929 2669.353856924
508	2230099 5890 17657 24440 157.75 213 222 -8.6544380187988 4 35.795072555542 473.04946335389
507	2235989 6350 17626 24440 157.5 213 223 0 15.02499961853 2185.8262877464 29680.28250981
506	2242339 7373 17595 24440 157.25 213 224 184.17810058594 483.36395263672 93343.901947021 40908657.937109
505	2249712 7332 17595 24440 157.25 213 224 486.85000610352 735.56745910645 117743.8793335 62991977.238664
544	2257044 5377 18982 24471 169.25 213.25 177 0.973 12.099024792222 546.86494415401 3039.6954398634
543	2262421 5326 18982 24471 169.25 213.25 177 -2.1220703125 2.5 40.038900375366 301.52800067672
542	2267747 5659 18951 24471 169 213.25 178 3.1082170009613 16.27499961853 2223.3142967224 30771.163348179
541	2273406 5880 18920 24471 168.75 213.25 179 184.17810058594 734.56585693359 80108.9637146 39946701.89582
540	2279286 5907 18920 24471 168.75 213.25 179 486.85000610352 486.85000610352 87146.151092529 42427104.191296
vector 659  IntersectionExampleScenario.node[93].veinsmobility  posx  ETV
vector 660  IntersectionExampleScenario.node[93].veinsmobility  posy  ETV
vector 661  IntersectionExampleScenario.node[93].veinsmobility  speed  ETV
vector 662  IntersectionExampleScenario.node[93].veinsmobility  acceleration  ETV
vector 663  IntersectionExampleScenario.node[93].veinsmobility  co2emission  ETV
vector 666  IntersectionExampleScenario.node[94].veinsmobility  posx  ETV
vector 667  IntersectionExampleScenario.node[94].veinsmobility  posy  ETV
vector 668  IntersectionExampleScenario.node[94].veinsmobility  speed  ETV
vector 669  IntersectionExampleScenario.node[94].veinsmobility  acceleration  ETV
vector 670  IntersectionExampleScenario.node[94].veinsmobility  co2emission  ETV
558	2285975 5249 19551 24793 173.75 215.75 169 0.973 11.990504229548 534.07872194514 2988.0559989955
557	2291224 5210 19551 24793 173.75 215.75 169 -4.4900169372559 2.5 39.869146347046 314.8556614931
556	2296434 5341 19516 24793 173.5 215.75 170 4.9724144935608 16.125 2213.5807209015 30815.61391464
555	2301775 5617 19483 24793 173.25 215.75 171 184.17810058594 732.62661743164 76086.168777466 37928680.999467
554	2307392 5645 19483 24793 173.25 215.75 171 486.85000610352 486.85000610352 83251.351043701 40530920.763752
vector 673  IntersectionExampleScenario.node[95].veinsmobility  posx  ETV
vector 674  IntersectionExampleScenario.node[95].veinsmobility  posy  ETV
vector 675  IntersectionExampleScenario.node[95].veinsmobility  speed  ETV
vector 676  IntersectionExampleScenario.node[95].veinsmobility  acceleration  ETV
vector 677  IntersectionExampleScenario.node[95].veinsmobility  co2emission  ETV
vector 680  IntersectionExampleScenario.node[96].veinsmobility  posx  ETV
vector 681  IntersectionExampleScenario.node[96].veinsmobility  posy  ETV
vector 682  IntersectionExampleScenario.node[96].veinsmobility  speed  ETV
530	2313654 6629 18414 25455 164.5 221.5 229 0.973 12.26218747632 628.98957355509 3382.8196789489
529	2320283 6061 18414 25455 164.5 221.5 229 -7.2935891151428 4 42.245687484741 502.44950224278
528	2326344 6298 18385 25455 164.25 221.5 230 0 16.5 2181.1262670755 32226.81512728
527	2332642 7616 18356 25455 164 221.5 231 486.63604736328 785.82187652588 126717.36780548 71486679.418393
526	2340258 7544 18356 25455 164 221.5 231 236.20288085938 483.14999389648 103844.68502808 47693363.101101
vector 683  IntersectionExampleScenario.node[96].veinsmobility  acceleration  ETV
vector 684  IntersectionExampleScenario.node[96].veinsmobility  co2emission  ETV
607	2347967 4804 21899 26155 190.5 228 151 0.973 12.099024792222 484.63932310442 2737.0470039873
606	2352771 4534 21899 26155 190.5 228 151 -3.3015441894531 2.5 40.038900375366 214.29066054663
605	2357305 4777 21867 26155 190.25 228 152 5.6500000953674 16.27499961853 2222.9441194534 33242.732746531
604	2362082 5026 21834 26155 190 228 153 235.4130859375 785.82187652588 79763.297737122 45666266.722443
603	2367108 5047 21834 26155 190 228 153 483.14999389648 483.14999389648 73921.949066162 35715389.240132
523	2372155 7550 18385 26411 164.25 230.75 267 0.96333723109819 12.099024792222 662.13497020077 3339.0087398747
522	2379705 7182 18385 26411 164.25 230.75 267 -18.338010787964 4 40.208654403687 776.31592217418
521	2386887 7470 18356 26411 164 230.75 268 0 16.27499961853 2169.4844999313 28277.007945349
520	2394357 8805 18329 26411 163.75 230.75 269 486.85000610352 731.43809509277 138812.70262146 72677351.348057
519	2403162 8858 18329 26411 163.75 230.75 269 486.63604736328 785.82187652588 147603.98462677 83014223.711184
vector 687  IntersectionExampleScenario.node[97].veinsmobility  posx  ETV
vector 688  IntersectionExampleScenario.node[97].veinsmobility  posy  ETV
572	2412170 6470 19989 26457 177 231.25 218 0.973 11.648172402475 586.89971244211 2964.4234715767
571	2418640 6029 19989 26457 177 231.25 218 -8.4909067153931 4 38.001859664917 493.50336635314
570	2424669 6251 19954 26457 176.75 231.25 219 0 15.64999961853 2207.1772968769 31179.875672456
[...]
vector 5288  IntersectionExampleScenario.node[754].veinsmobility  speed  ETV
vector 5289  IntersectionExampleScenario.node[754].veinsmobility  acceleration  ETV
vector 5290  IntersectionExampleScenario.node[754].veinsmobility  co2emission  ETV
5101	25078276 6509 211383 218276 1745 1794 197 0.973 11.54047740176 549.29474048475 2793.8919098991
5100	25084785 6636 211383 218276 1745 1794 197 -3.9671192169189 2.5 36.98334312439 344.62772593784
5099	25091421 6937 211350 218276 1744.75 1794 198 1.7441673278809 15.5 2213.9788736105 29018.968224885
5098	25098358 7146 211319 218276 1744.5 1794 199 237.25006103516 785.82187652588 103931.50922394 58491890.806198
5097	25105504 7163 211319 218276 1744.5 1794 199 483.14999389648 483.14999389648 96146.8487854 46453349.403832
vector 5293  IntersectionExampleScenario.node[755].veinsmobility  posx  ETV
vector 5294  IntersectionExampleScenario.node[755].veinsmobility  posy  ETV
vector 5295  IntersectionExampleScenario.node[755].veinsmobility  speed  ETV
vector 5296  IntersectionExampleScenario.node[755].veinsmobility  acceleration  ETV
vector 5297  IntersectionExampleScenario.node[755].veinsmobility  co2emission  ETV
vector 5300  IntersectionExampleScenario.node[756].veinsmobility  posx  ETV
vector 5301  IntersectionExampleScenario.node[756].veinsmobility  posy  ETV
vector 5302  IntersectionExampleScenario.node[756].veinsmobility  speed  ETV
vector 5303  IntersectionExampleScenario.node[756].veinsmobility  acceleration  ETV
vector 5304  IntersectionExampleScenario.node[756].veinsmobility  co2emission  ETV
vector 5307  IntersectionExampleScenario.node[757].veinsmobility  posx  ETV
vector 5308  IntersectionExampleScenario.node[757].veinsmobility  posy  ETV
5129	25113623 5497 212993 218945 1758.5 1798.25 160 0.973 11.671593249169 534.56935457989 3191.2396902975
5128	25119120 5196 212993 218945 1758.5 1798.25 160 -3.4218597412109 2.5 38.171613693237 315.97011446295
5127	25124316 5491 212964 218945 1758.25 1798.25 161 5.6500000953674 15.682584762573 2181.3366594315 30862.223479538
5126	25129807 5824 212937 218945 1758 1798.25 162 486.85000610352 785.82187652588 92758.787696838 54855176.642919
5125	25135631 5824 212937 218945 1758 1798.25 162 237.57592773438 483.14999389648 70111.035705566 31263880.132346
vector 5309  IntersectionExampleScenario.node[757].veinsmobility  speed  ETV
vector 5314  IntersectionExampleScenario.node[758].veinsmobility  posx  ETV
vector 5315  IntersectionExampleScenario.node[758].veinsmobility  posy  ETV
vector 5310  IntersectionExampleScenario.node[757].veinsmobility  acceleration  ETV
vector 5311  IntersectionExampleScenario.node[757].veinsmobility  co2emission  ETV
vector 5316  IntersectionExampleScenario.node[758].veinsmobility  speed  ETV
5115	25141934 6549 212080 219070 1750.25 1799 196 0.97223939240464 11.648172402475 568.01262567383 2935.5859427027
5114	25148483 6029 212080 219070 1750.25 1799 196 -7.1630792617798 4 38.680875778198 471.71272919869
5113	25154512 6379 212045 219070 1750 1799 197 0 15.64999961853 2189.1655395031 31036.837682078
5112	25160891 7116 212010 219070 1749.75 1799 198 483.14999389648 734.76512145996 104128.89054871 55819631.313575
5111	25168007 7099 212010 219070 1749.75 1799 198 184.17810058594 486.85000610352 81657.040130615 35610988.213784
vector 5317  IntersectionExampleScenario.node[758].veinsmobility  acceleration  ETV
vector 5318  IntersectionExampleScenario.node[758].veinsmobility  co2emission  ETV
vector 5321  IntersectionExampleScenario.node[759].veinsmobility  posx  ETV
vector 5322  IntersectionExampleScenario.node[759].veinsmobility  posy  ETV
vector 5323  IntersectionExampleScenario.node[759].veinsmobility  speed  ETV
vector 5324  IntersectionExampleScenario.node[759].veinsmobility  acceleration  ETV
vector 5325  IntersectionExampleScenario.node[759].veinsmobility  co2emission  ETV
5094	25175676 7450 211145 219240 1743 1800 229 0.973 11.648172402475 599.68142687081 2840.0879148013
5093	25183126 7139 211145 219240 1743 1800 229 -7.7750473022461 4 38.511121749878 457.79102190594
5092	25190265 7354 211116 219240 1742.75 1800 230 0 15.64999961853 2210.4659023285 31035.837252512
5091	25197619 8315 211087 219240 1742.5 1800 231 486.85000610352 486.85000610352 112462.35140991 54752296.470331
5090	25205934 8297 211087 219240 1742.5 1800 231 237.189453125 785.82187652588 118697.48279572 65146774.541703
5122	25214231 5689 212937 219240 1758 1800 169 0.973 11.36141391502 516.12276584117 2821.7236726403
5121	25219920 5793 212937 219240 1758 1800 169 -2.8566303253174 2.5000019073486 36.813589096069 317.27785593166
5120	25225713 5798 212912 219240 1757.75 1800 170 4.7006764411926 15.25 2037.9896879196 26526.897513795
5119	25231511 6150 212886 219240 1757.5 1800 171 486.85000610352 696.17433166504 89352.523178101 47318583.195543
5118	25237661 6142 212886 219240 1757.5 1800 171 486.68185424805 785.82187652588 98102.412086487 58002552.157425
5136	25243803 5639 213021 219240 1758.75 1800 166 0.973 11.36141391502 513.52861126874 2815.6517175748
5135	25249442 5680 213021 219240 1758.75 1800 166 -4.5 2.5000019073486 36.983442306519 393.44536796983
5134	25255122 5700 212993 219240 1758.5 1800 167 3.9718525409698 15.361680984497 1963.4993350506 25233.218861762
5133	25260822 6047 212964 219240 1758.25 1800 168 486.85000610352 655.38264465332 85784.36479187 44152768.208451
5132	25266869 6035 212964 219240 1758.25 1800 168 486.85000610352 808.82032012939 99209.93094635 60567776.152535
5143	25272904 4651 213670 219240 1764.75 1800 142 0.973 11.648172402475 454.5384704368 2679.5210975598
5142	25277555 4317 213670 219240 1764.75 1800 142 -7.775092124939 4 38.588243484497 474.84594606728
5141	25281872 4493 213643 219240 1764.5 1800 143 0 15.64999961853 1430.7379376888 19242.518483061
5140	25286365 5163 213615 219240 1764.25 1800 144 184.17810058594 483.36395263672 55369.819152832 22816911.211878
5139	25291528 5123 213615 219240 1764.25 1800 144 486.85000610352 546.46130371094 70703.772583008 34735224.698747
5150	25296651 4563 213829 219240 1766.25 1800 136 0.973 11.200708441096 428.49602195432 2433.4943876897
5149	25301214 4546 213829 219240 1766.25 1800 136 -4.5 2.5000019073486 36.333642959595 415.65253455543
5148	25305760 4719 213802 219240 1766 1800 137 0 15.02499961853 1456.1342879292 18750.551509081
5147	25310479 4924 213775 219240 1765.75 1800 138 163.88433837891 487.0373840332 50214.403198242 19912049.115443
5146	25315403 4967 213775 219240 1765.75 1800 138 444.17190551758 486.85000610352 66848.279571533 32390232.702069
5157	25320370 4157 213887 219240 1766.75 1800 134 0.973 11.648172402475 312.30190246508 1500.6817910429
5156	25324527 3922 213887 219240 1766.75 1800 134 -7.2641291618347 2.5 -22.60000038147 322.33490584057
5155	25328449 4173 213858 219240 1766.5 1800 135 0 15.64999961853 1146.9074419737 16340.135465357
5154	25332622 4891 213829 219240 1766.25 1800 136 498.39999389648 785.82187652588 80465.193183899 49019920.624693
5153	25337513 4896 213829 219240 1766.25 1800 136 483.14999389648 483.14999389648 65708.399169922 31747012.657895
5164	25342409 4433 213953 219240 1767.25 1800 132 0.973 11.170471583448 309.02761314682 1381.4704818081
5163	25346842 4486 213953 219240 1767.25 1800 132 -4.5 2.5 -22.541437983513 287.94306097345
5162	25351328 4755 213920 219240 1767 1800 133 0 15.26993560791 1217.7362710964 16617.304956848
5161	25356083 4808 213887 219240 1766.75 1800 134 504.88510131836 809.56562805176 82333.320907593 52143733.561632
5160	25360891 4823 213887 219240 1766.75 1800 134 483.14999389648 483.14999389648 64742.099182129 31280144.824691
5171	25365714 4647 213953 219240 1767.25 1800 132 0.973 11.648172402475 422.98751836413 2359.1315782792
5170	25370361 4398 213953 219240 1767.25 1800 132 -3.1964302062988 2.5 38.341421127319 191.50694040122
5169	25374759 4557 213920 219240 1767 1800 133 5.6500000953674 15.64999961853 1881.9556722641 27243.588764173
5168	25379316 4823 213887 219240 1766.75 1800 134 483.14999389648 483.14999389648 64742.099182129 31280144.824691
5167	25384139 4795 213887 219240 1766.75 1800 134 184.17810058594 649.47116088867 54730.627716064 24947163.937046
5178	25388934 4346 214024 219240 1767.75 1800 130 0.973 10.756497587458 395.59824502278 2261.8995557939
5177	25393280 4462 214024 219240 1767.75 1800 130 -3.3176975250244 2.5 33.080373764038 242.30072190635
5176	25397742 4430 213988 219240 1767.5 1800 131 5.6500000953674 14.39999961853 1610.6218352318 20621.301070067
5175	25402172 4745 213953 219240 1767.25 1800 132 486.85000610352 590.15740966797 65924.43762207 33015828.799703
5174	25406917 4741 213953 219240 1767.25 1800 132 486.85000610352 785.82187652588 79006.132919312 48723299.012946
5185	25411658 4326 214059 219240 1768 1800 129 0.973 11.200708441096 418.25345280928 2228.4278668275
5184	25415984 4251 214059 219240 1768 1800 129 -4.5 2.5 29.39999961853 400.34097335404
5183	25420235 4531 214024 219240 1767.75 1800 130 2.1690893173218 15.795528411865 1424.8288469315 18506.742958527
5182	25424766 4697 213988 219240 1767.5 1800 131 154.79528808594 507.37747192383 46217.433380127 17892168.448271
5181	25429463 4715 213988 219240 1767.5 1800 131 486.85000610352 486.85000610352 63777.350799561 31050003.626032
5192	25434178 4031 214340 219240 1770 1800 121 0.973 9.5018558235067 305.52527472963 1300.7589190023
5191	25438209 4354 214340 219240 1770 1800 121 -4.5 2.5 -22.246363937855 301.30443550007
5190	25442563 4374 214303 219240 1769.75 1800 122 0 14.729859352112 1186.9455261603 14936.629188074
5189	25446937 4427 214268 219240 1769.5 1800 123 486.85000610352 486.85000610352 59882.550750732 29153820.198488
5188	25451364 4411 214268 219240 1769.5 1800 123 505.24838256836 802.70781707764 77843.583251953 50624581.775713
5199	25455775 4151 214379 219240 1770.25 1800 120 0.973 12.26218747632 467.23558166268 3041.5005348943
5198	25459926 3759 214379 219240 1770.25 1800 120 -4.5 2.5 42.457014083862 324.14533304555
5197	25463685 4017 214340 219240 1770 1800 121 5.6500000953674 16.5 1642.3033766747 23808.110443597
5196	25467702 4369 214303 219240 1769.75 1800 122 385.1682434082 483.14999389648 57589.80645752 27254683.958056
5195	25472071 4361 214303 219240 1769.75 1800 122 171.40313720703 483.14999389648 44516.056610107 17738299.96622
5206	25476432 3908 214418 219240 1770.5 1800 119 0.973 9.9644804524121 299.27541085004 1256.3440844936
5205	25480340 4216 214418 219240 1770.5 1800 119 -4.5 2.5 -18.494344234467 274.97165142329
5204	25484556 4302 214379 219240 1770.25 1800 120 1.0264140367508 15.611451148987 1216.8307005167 15429.823883217
5203	25488858 4354 214340 219240 1770 1800 121 486.85000610352 486.85000610352 58908.850738525 28679774.341602
5202	25493212 4340 214340 219240 1770 1800 121 513.87939453125 818.00859832764 78601.34614563 52437676.10162
5213	25497552 3848 214539 219240 1771.25 1800 116 0.973 10.756497587458 315.89333492371 1510.4933392686
5212	25501400 3989 214539 219240 1771.25 1800 116 -3.6988868713379 2.5 5.3999996185303 254.5629941066
5211	25505389 4132 214498 219240 1771 1800 117 4.2239856719971 14.478900909424 1281.3373389244 15516.137326937
5210	25509521 4214 214457 219240 1770.75 1800 118 158.23828125 476.42718505859 39298.12991333 14322720.912032
5209	25513735 4247 214457 219240 1770.75 1800 118 486.85000610352 487.71157836914 57449.587738037 27969959.595978
5220	25517982 3637 214622 219240 1771.75 1800 114 0.973 10.756497587458 272.84795116642 1227.9910755785
5219	25521619 3508 214622 219240 1771.75 1800 114 -28.692710876465 2.5 -22.60000038147 1013.7869667161
5218	25525127 3694 214581 219240 1771.5 1800 115 0 14.536612510681 1081.0085029602 14413.674868449
5217	25528821 4176 214539 219240 1771.25 1800 116 486.85000610352 486.85000610352 56474.600708008 27494659.699387
5216	25532997 4167 214539 219240 1771.25 1800 116 498.39999389648 769.70079040527 69741.473083496 42988237.552468
5227	25537164 3419 214790 219240 1772.75 1800 110 0.973 11.200708441096 272.7837725162 1344.7968485333
5226	25540583 3988 214790 219240 1772.75 1800 110 -3.1902542114258 2.5 -18.629990100861 186.39074636741
5225	25544571 3973 214747 219240 1772.5 1800 111 0.99250257015228 15.397561073303 1121.7711774111 14464.699979881
5224	25548544 4010 214704 219240 1772.25 1800 112 513.2548828125 793.80384063721 70125.656921387 44937191.800385
5223	25552554 4032 214704 219240 1772.25 1800 112 483.14999389648 483.14999389648 54112.799316406 26144598.659443
5234	25556586 3354 215129 219240 1774.75 1800 102 0.973 11.648172402475 270.26774918152 1426.8934603704
5233	25559940 3624 215129 219240 1774.75 1800 102 -4.5 2.5 -12.102323532104 233.52637796519
5232	25563564 3685 215086 219240 1774.5 1800 103 2.6244192123413 15.64999961853 1121.8595833778 14429.071043644
5231	25567249 3738 215043 219240 1774.25 1800 104 528.12951660156 807.91286468506 67529.188804626 44763967.765225
5230	25570987 3744 215043 219240 1774.25 1800 104 483.14999389648 483.14999389648 50247.599365234 24277127.326626
5241	25574731 3122 215425 219240 1776.5 1800 95 0.973 11.648172402475 256.31072674389 1401.1023362668
5240	25577853 3370 215425 219240 1776.5 1800 95 -4.5 2.5 -22.451693072915 282.99025990075
5239	25581223 3427 215382 219240 1776.25 1800 96 0 15.64999961853 1126.3841372691 15349.494320639
5238	25584650 3490 215339 219240 1776 1800 97 486.85000610352 486.85000610352 47224.450592041 22991224.05897
5237	25588140 3480 215339 219240 1776 1800 97 521.83474731445 803.5856628418 63066.015007019 41882079.622875
5248	25591620 2376 216260 219240 1781.5 1800 75 0.973 11.648172402475 224.02777497896 1351.7889735992
5247	25593996 2608 216260 219240 1781.5 1800 75 -3.3340454101562 2.5 -4.8182678222656 183.10834418196
5246	25596604 2721 216217 219240 1781.25 1800 76 4.445433139801 15.722341537476 933.32134962082 12506.943705552
5245	25599325 2767 216174 219240 1781 1800 77 553.69003295898 785.82187652588 51322.867027283 34663944.151295
5244	25602092 2770 216174 219240 1781 1800 77 483.14999389648 483.14999389648 37202.549530029 17974411.578367
5255	25604862 2401 216470 219240 1782.75 1800 70 0.973 11.200708441096 246.66012322575 1495.851325347
5254	25607263 2528 216470 219240 1782.75 1800 70 -0.97623825073242 2.5 36.796781539917 109.85629648206
5253	25609791 2541 216427 219240 1782.5 1800 71 5.6500000953674 15.02499961853 973.86569595337 13731.712794252
5252	25612332 2569 216384 219240 1782.25 1800 72 184.17810058594 422.77453613281 21208.702087402 6641236.0048804
5251	25614901 2592 216384 219240 1782.25 1800 72 486.85000610352 486.85000610352 35053.200439453 17065650.847895
5262	25617493 2045 216796 219240 1784.75 1800 62 0.973 11.648172402475 208.87840139557 1324.4685073836
5261	25619538 2093 216796 219240 1784.75 1800 62 -1.9599914550781 2.5 18.836709976196 126.63239798612
5260	25621631 2252 216755 219240 1784.5 1800 63 5.6500000953674 15.64999961853 836.50720119476 11520.010435814
5259	25623883 2304 216714 219240 1784.25 1800 64 486.85000610352 486.85000610352 31158.400390625 15169467.420352
5258	25626187 2297 216714 219240 1784.25 1800 64 580.17233276367 785.82187652588 44102.823646545 30666144.531723
5269	25628484 2019 216963 219240 1785.75 1800 58 0.973 11.888519228916 227.61013346375 1436.4388495114
5268	25630503 2028 216963 219240 1785.75 1800 58 -4.4110946655273 2.5 32.884428024292 127.30783924589
5267	25632531 2109 216921 219240 1785.5 1800 59 5.6500000953674 16.246934890747 850.5293636322 12782.489563949
5266	25634640 2160 216878 219240 1785.25 1800 60 486.85000610352 486.85000610352 29211.000366211 14221375.70658
5265	25636800 2155 216878 219240 1785.25 1800 60 600.15386962891 807.99687957764 42920.279960632 30957694.082924
5276	25638955 1465 217648 219240 1790 1800 41 1.188401956106 11.200708441096 196.21656069068 1296.6590418094
5275	25640420 1343 217648 219240 1790 1800 41 -0.28140258789062 2.5 41.58399772644 96.755299299435
5274	25641763 1500 217609 219240 1789.75 1800 42 5.6500000953674 16.323066711426 576.78002548218 8354.8546131595
5273	25643263 1525 217569 219240 1789.5 1800 43 184.17810058594 323.01129150391 10478.828063965 2635671.4010417
5272	25644788 1547 217569 219240 1789.5 1800 43 486.85000610352 486.85000610352 20934.550262451 10191985.923049
5283	25646335 1112 218041 219240 1792.5 1800 31 1.2079002964199 12.099024792222 173.87978287265 1390.6832269614
5282	25647447 963 218041 219240 1792.5 1800 31 -0.27577209472656 2.5 41.416570663452 106.42376263551
5281	25648410 1139 218001 219240 1792.25 1800 32 5.6500000953674 16.27499961853 422.12677192688 5962.1863620096
5280	25649549 1170 217960 219240 1792 1800 33 168.58435058594 268.73394775391 6932.2279663086 1489378.813214
5279	25650719 1186 217960 219240 1792 1800 33 486.85000610352 486.85000610352 16066.050201416 7821756.6386188
5290	25651905 931 218237 219240 1793.75 1800 26 2.0521571993764 11.200708441096 151.66931915005 1150.0298912738
5289	25652836 797 218237 219240 1793.75 1800 26 -0.036945343017578 2.5 38.861715316772 95.375702312685
5288	25653633 961 218198 219240 1793.5 1800 27 5.6500000953674 15.399600982666 334.25330924988 4434.6613743108
5287	25654594 1008 218158 219240 1793.25 1800 28 486.85000610352 486.85000610352 13631.800170898 6636641.9964038
5286	25655602 1008 218158 219240 1793.25 1800 28 707.35556030273 785.82187652588 21103.578269958 15922976.369387
5297	25656610 573 218626 219240 1796.25 1800 16 1.8321577376031 11.200708441096 124.43452241097 1056.5304870336
5296	25657183 411 218626 219240 1796.25 1800 16 -0.086727142333984 2.5 37.413270950317 93.757512060478
5295	25657594 601 218587 219240 1796 1800 17 5.6500000953674 15.02499961853 180.40331363678 2067.7344449356
5294	25658195 647 218548 219240 1795.75 1800 18 745.72188568115 785.82187652588 13857.068901062 10670567.205861
5293	25658842 647 218548 219240 1795.75 1800 18 483.14999389648 483.14999389648 8696.6998901367 4201810.4988391
5304	25659489 463 218747 219240 1797 1800 13 5.2162187258585 10.315404520939 100.64515864481 812.01557512667
5303	25659952 322 218747 219240 1797 1800 13 2.4999980926514 2.5 32.499998092651 81.24999046326
5302	25660274 496 218706 219240 1796.75 1800 14 5.6500000953674 13.77499961853 135.97499656677 1409.5242963886
5301	25660770 513 218665 219240 1796.5 1800 15 173.9375 203.47186279297 2787.3653564453 519303.75942666
5300	25661283 539 218665 219240 1796.5 1800 15 486.85000610352 486.85000610352 7302.7500915527 3555343.9266449
5311	25661822 214 219027 219240 1798.75 1800 6 5.2162187258585 7.303684162087 37.542735715336 237.95938883636
5310	25662036 155 219027 219240 1798.75 1800 6 2.4999980926514 2.5 14.999998092651 37.49999046326
5309	25662191 251 218986 219240 1798.5 1800 7 5.6500000953674 9.3999996185303 52.674999237061 407.31685994148
5308	25662442 277 218945 219240 1798.25 1800 8 159.82183837891 170.171875 1312.0654907227 215293.34099129
5307	25662719 288 218945 219240 1798.25 1800 8 486.85000610352 486.85000610352 3894.8000488281 1896183.4275439
5318	25663007 144 219112 219240 1799.25 1800 4 5.2162187258585 6.4635356930995 23.356389703243 137.24455235531
5317	25663151 108 219112 219240 1799.25 1800 4 2.4999980926514 2.5 9.9999980926514 24.99999046326
5316	25663259 178 219070 219240 1799 1800 5 5.6500000953674 8.1499996185303 34.5 241.95624880791
5315	25663437 215 219027 219240 1798.75 1800 6 483.14999389648 483.14999389648 2898.8999633789 1400603.499613
5314	25663652 210 219027 219240 1798.75 1800 6 184.17810058594 190.453125 1119.9749755859 209089.4263842
5325	25663862 34 219240 219240 1800 1800 1 5.2162187258585 5.2162187258585 5.2162187258585 27.208937795997
5324	25663896 22 219240 219240 1800 1800 1 2.5 2.5 2.5 6.25
5323	25663918 71 219196 219240 1799.75 1800 2 5.6500000953674 6.2750000953674 11.925000190735 71.298127274513
5322	25663989 107 219153 219240 1799.5 1800 3 486.85000610352 486.85000610352 1460.5500183105 711068.78532898
5321	25664096 107 219153 219240 1799.5 1800 3 784.48750305176 785.82187652588 2356.1312561035 1850452.6856977
4	25664203 516 0 219239 0 1800 31 0 39 666 15766
5	25664719 533 0 219239 0 1800 31 0 254 3736 620936
