file 26426292 1591460977                                        
version 2
run nodebug-7-20200606-12:25:24-21956
attr configname nodebug
attr datetime 20200606-12:25:24
attr experiment nodebug
attr inifile omnetpp.ini
attr iterationvars ""
attr iterationvars2 $repetition=7
attr measurement ""
attr network "\"org.car2x.veins.modules.application.ExtTraCIScenarioManagerLaunchd.IntersectionExampleScenario\""
attr processid 21956
attr repetition 7
attr replication #7
attr resultdir results
attr runnumber 7
attr seedset 7
param **.coreDebug false
param **.debug false
param *.**.nic.mac1609_4.bitrate 18Mbps
param *.**.nic.mac1609_4.txPower 20mW
param *.**.nic.mac1609_4.useServiceChannel false
param *.**.nic.phy80211p.analogueModels "xmldoc(\"config.xml\")"
param *.**.nic.phy80211p.decider "xmldoc(\"config.xml\")"
param *.**.nic.phy80211p.sensitivity -89dBm
param *.**.nic.phy80211p.thermalNoise -110dBm
param *.**.nic.phy80211p.usePropagationDelay true
param *.**.nic.phy80211p.useThermalNoise true
param *.annotations.draw false
param *.connectionManager.alpha 2.0
param *.connectionManager.carrierFrequency "5.890e9 Hz"
param *.connectionManager.pMax 20mW
param *.connectionManager.sat -89dBm
param *.connectionManager.sendDirect true
param *.manager.autoShutdown true
param *.manager.host "\"localhost\""
param *.manager.launchConfig "xmldoc(\"paramics.launchd.xml\")"
param *.manager.margin 25
param *.manager.moduleDisplayString "\"\""
param *.manager.moduleName "\"node\""
param *.manager.moduleType "\"org.car2x.veins.nodes.Car\""
param *.manager.port 9999
param *.manager.updateInterval 250ms
param *.node[*0].veinsmobility.accidentCount 0
param *.node[*0].veinsmobility.accidentDuration 30s
param *.node[*0].veinsmobility.accidentStart 75s
param *.node[*].appl.LiderSelectZoneRadio 55.0
param *.node[*].appl.ShareDataZoneRadio 110.0
param *.node[*].appl.TiempoSemaforo 30.0
param *.node[*].appl.beaconInterval 1s
param *.node[*].appl.beaconPriority 3
param *.node[*].appl.dataOnSch false
param *.node[*].appl.dataPriority 2
param *.node[*].appl.debug false
param *.node[*].appl.headerLength "256 bit"
param *.node[*].appl.maxOffset 0.005s
param *.node[*].appl.sendBeacons false
param *.node[*].appl.sendData true
param *.node[*].applType "\"Dummy\""
param *.node[*].mobilityType "\"TraCIMobility\""
param *.node[*].mobilityType.debug true
param *.node[*].veinsmobility.x 0
param *.node[*].veinsmobility.y 0
param *.node[*].veinsmobility.z 1.895
param *.node[*].veinsmobilityType "\"org.car2x.veins.modules.mobility.traci.TraCIMobility\""
param *.node[*].veinsmobilityType.debug true
param *.playgroundSizeX 8500m
param *.playgroundSizeY 8500m
param *.playgroundSizeZ 50m
param *.world.use2D false
param *.world.useTorus false

vector 5334  IntersectionExampleScenario.manager  vehiclesinsim  ETV
attr type  int
vector 5335  IntersectionExampleScenario.manager  realtime  ETV
attr type  int
attr unit  s
vector 5338  IntersectionExampleScenario.node[0].veinsmobility  posx  ETV
vector 5339  IntersectionExampleScenario.node[0].veinsmobility  posy  ETV
vector 5340  IntersectionExampleScenario.node[0].veinsmobility  speed  ETV
vector 5341  IntersectionExampleScenario.node[0].veinsmobility  acceleration  ETV
vector 5342  IntersectionExampleScenario.node[0].veinsmobility  co2emission  ETV
vector 5345  IntersectionExampleScenario.node[1].veinsmobility  posx  ETV
vector 5346  IntersectionExampleScenario.node[1].veinsmobility  posy  ETV
vector 5352  IntersectionExampleScenario.node[2].veinsmobility  posx  ETV
vector 5353  IntersectionExampleScenario.node[2].veinsmobility  posy  ETV
vector 5347  IntersectionExampleScenario.node[1].veinsmobility  speed  ETV
vector 5348  IntersectionExampleScenario.node[1].veinsmobility  acceleration  ETV
vector 5349  IntersectionExampleScenario.node[1].veinsmobility  co2emission  ETV
vector 5354  IntersectionExampleScenario.node[2].veinsmobility  speed  ETV
vector 5355  IntersectionExampleScenario.node[2].veinsmobility  acceleration  ETV
vector 5356  IntersectionExampleScenario.node[2].veinsmobility  co2emission  ETV
vector 5359  IntersectionExampleScenario.node[3].veinsmobility  posx  ETV
vector 5360  IntersectionExampleScenario.node[3].veinsmobility  posy  ETV
vector 5361  IntersectionExampleScenario.node[3].veinsmobility  speed  ETV
vector 5362  IntersectionExampleScenario.node[3].veinsmobility  acceleration  ETV
vector 5363  IntersectionExampleScenario.node[3].veinsmobility  co2emission  ETV
vector 5366  IntersectionExampleScenario.node[4].veinsmobility  posx  ETV
vector 5367  IntersectionExampleScenario.node[4].veinsmobility  posy  ETV
vector 5368  IntersectionExampleScenario.node[4].veinsmobility  speed  ETV
vector 5369  IntersectionExampleScenario.node[4].veinsmobility  acceleration  ETV
vector 5370  IntersectionExampleScenario.node[4].veinsmobility  co2emission  ETV
vector 5373  IntersectionExampleScenario.node[5].veinsmobility  posx  ETV
vector 5374  IntersectionExampleScenario.node[5].veinsmobility  posy  ETV
vector 5375  IntersectionExampleScenario.node[5].veinsmobility  speed  ETV
vector 5376  IntersectionExampleScenario.node[5].veinsmobility  acceleration  ETV
vector 5377  IntersectionExampleScenario.node[5].veinsmobility  co2emission  ETV
vector 5380  IntersectionExampleScenario.node[6].veinsmobility  posx  ETV
vector 5381  IntersectionExampleScenario.node[6].veinsmobility  posy  ETV
vector 5382  IntersectionExampleScenario.node[6].veinsmobility  speed  ETV
vector 5383  IntersectionExampleScenario.node[6].veinsmobility  acceleration  ETV
vector 5384  IntersectionExampleScenario.node[6].veinsmobility  co2emission  ETV
vector 5387  IntersectionExampleScenario.node[7].veinsmobility  posx  ETV
vector 5388  IntersectionExampleScenario.node[7].veinsmobility  posy  ETV
vector 5389  IntersectionExampleScenario.node[7].veinsmobility  speed  ETV
vector 5390  IntersectionExampleScenario.node[7].veinsmobility  acceleration  ETV
vector 5391  IntersectionExampleScenario.node[7].veinsmobility  co2emission  ETV
vector 5394  IntersectionExampleScenario.node[8].veinsmobility  posx  ETV
vector 5395  IntersectionExampleScenario.node[8].veinsmobility  posy  ETV
vector 5396  IntersectionExampleScenario.node[8].veinsmobility  speed  ETV
vector 5397  IntersectionExampleScenario.node[8].veinsmobility  acceleration  ETV
vector 5398  IntersectionExampleScenario.node[8].veinsmobility  co2emission  ETV
vector 5401  IntersectionExampleScenario.node[9].veinsmobility  posx  ETV
vector 5402  IntersectionExampleScenario.node[9].veinsmobility  posy  ETV
vector 5403  IntersectionExampleScenario.node[9].veinsmobility  speed  ETV
vector 5404  IntersectionExampleScenario.node[9].veinsmobility  acceleration  ETV
vector 5405  IntersectionExampleScenario.node[9].veinsmobility  co2emission  ETV
vector 5408  IntersectionExampleScenario.node[10].veinsmobility  posx  ETV
vector 5409  IntersectionExampleScenario.node[10].veinsmobility  posy  ETV
vector 5415  IntersectionExampleScenario.node[11].veinsmobility  posx  ETV
vector 5416  IntersectionExampleScenario.node[11].veinsmobility  posy  ETV
vector 5410  IntersectionExampleScenario.node[10].veinsmobility  speed  ETV
vector 5411  IntersectionExampleScenario.node[10].veinsmobility  acceleration  ETV
vector 5412  IntersectionExampleScenario.node[10].veinsmobility  co2emission  ETV
vector 5417  IntersectionExampleScenario.node[11].veinsmobility  speed  ETV
vector 5418  IntersectionExampleScenario.node[11].veinsmobility  acceleration  ETV
vector 5419  IntersectionExampleScenario.node[11].veinsmobility  co2emission  ETV
vector 5422  IntersectionExampleScenario.node[12].veinsmobility  posx  ETV
vector 5423  IntersectionExampleScenario.node[12].veinsmobility  posy  ETV
vector 5424  IntersectionExampleScenario.node[12].veinsmobility  speed  ETV
vector 5425  IntersectionExampleScenario.node[12].veinsmobility  acceleration  ETV
vector 5426  IntersectionExampleScenario.node[12].veinsmobility  co2emission  ETV
vector 5429  IntersectionExampleScenario.node[13].veinsmobility  posx  ETV
vector 5430  IntersectionExampleScenario.node[13].veinsmobility  posy  ETV
vector 5431  IntersectionExampleScenario.node[13].veinsmobility  speed  ETV
vector 5432  IntersectionExampleScenario.node[13].veinsmobility  acceleration  ETV
vector 5433  IntersectionExampleScenario.node[13].veinsmobility  co2emission  ETV
vector 5436  IntersectionExampleScenario.node[14].veinsmobility  posx  ETV
vector 5437  IntersectionExampleScenario.node[14].veinsmobility  posy  ETV
vector 5438  IntersectionExampleScenario.node[14].veinsmobility  speed  ETV
vector 5439  IntersectionExampleScenario.node[14].veinsmobility  acceleration  ETV
vector 5440  IntersectionExampleScenario.node[14].veinsmobility  co2emission  ETV
vector 5443  IntersectionExampleScenario.node[15].veinsmobility  posx  ETV
vector 5444  IntersectionExampleScenario.node[15].veinsmobility  posy  ETV
vector 5445  IntersectionExampleScenario.node[15].veinsmobility  speed  ETV
vector 5446  IntersectionExampleScenario.node[15].veinsmobility  acceleration  ETV
vector 5447  IntersectionExampleScenario.node[15].veinsmobility  co2emission  ETV
vector 5450  IntersectionExampleScenario.node[16].veinsmobility  posx  ETV
vector 5451  IntersectionExampleScenario.node[16].veinsmobility  posy  ETV
vector 5452  IntersectionExampleScenario.node[16].veinsmobility  speed  ETV
vector 5453  IntersectionExampleScenario.node[16].veinsmobility  acceleration  ETV
vector 5454  IntersectionExampleScenario.node[16].veinsmobility  co2emission  ETV
5342	9610 4601 13 2810 2 39.75 152 0.973 11.990504229548 489.53600859581 2722.4947742232
5341	14211 4253 13 2810 2 39.75 152 -3.6995697021484 2.5 39.529638290405 220.12281174935
5340	18464 4508 10 2810 1.75 39.75 153 5.6500000953674 16.125 2220.7941255569 32934.919288401
5339	22972 4794 7 2810 1.5 39.75 154 486.85000610352 486.85000610352 74974.900939941 36501530.980221
5338	27766 4783 7 2810 1.5 39.75 154 236.02166748047 785.82187652588 80332.59122467 46005079.909006
vector 5457  IntersectionExampleScenario.node[17].veinsmobility  posx  ETV
vector 5458  IntersectionExampleScenario.node[17].veinsmobility  posy  ETV
vector 5459  IntersectionExampleScenario.node[17].veinsmobility  speed  ETV
vector 5460  IntersectionExampleScenario.node[17].veinsmobility  acceleration  ETV
vector 5461  IntersectionExampleScenario.node[17].veinsmobility  co2emission  ETV
vector 5464  IntersectionExampleScenario.node[18].veinsmobility  posx  ETV
vector 5465  IntersectionExampleScenario.node[18].veinsmobility  posy  ETV
vector 5471  IntersectionExampleScenario.node[19].veinsmobility  posx  ETV
vector 5472  IntersectionExampleScenario.node[19].veinsmobility  posy  ETV
vector 5466  IntersectionExampleScenario.node[18].veinsmobility  speed  ETV
vector 5467  IntersectionExampleScenario.node[18].veinsmobility  acceleration  ETV
vector 5468  IntersectionExampleScenario.node[18].veinsmobility  co2emission  ETV
vector 5473  IntersectionExampleScenario.node[19].veinsmobility  speed  ETV
vector 5474  IntersectionExampleScenario.node[19].veinsmobility  acceleration  ETV
vector 5475  IntersectionExampleScenario.node[19].veinsmobility  co2emission  ETV
vector 5478  IntersectionExampleScenario.node[20].veinsmobility  posx  ETV
vector 5479  IntersectionExampleScenario.node[20].veinsmobility  posy  ETV
vector 5480  IntersectionExampleScenario.node[20].veinsmobility  speed  ETV
vector 5481  IntersectionExampleScenario.node[20].veinsmobility  acceleration  ETV
vector 5482  IntersectionExampleScenario.node[20].veinsmobility  co2emission  ETV
vector 5485  IntersectionExampleScenario.node[21].veinsmobility  posx  ETV
vector 5486  IntersectionExampleScenario.node[21].veinsmobility  posy  ETV
vector 5487  IntersectionExampleScenario.node[21].veinsmobility  speed  ETV
vector 5492  IntersectionExampleScenario.node[22].veinsmobility  posx  ETV
vector 5493  IntersectionExampleScenario.node[22].veinsmobility  posy  ETV
vector 5488  IntersectionExampleScenario.node[21].veinsmobility  acceleration  ETV
vector 5489  IntersectionExampleScenario.node[21].veinsmobility  co2emission  ETV
vector 5494  IntersectionExampleScenario.node[22].veinsmobility  speed  ETV
vector 5495  IntersectionExampleScenario.node[22].veinsmobility  acceleration  ETV
vector 5496  IntersectionExampleScenario.node[22].veinsmobility  co2emission  ETV
vector 5499  IntersectionExampleScenario.node[23].veinsmobility  posx  ETV
vector 5500  IntersectionExampleScenario.node[23].veinsmobility  posy  ETV
vector 5501  IntersectionExampleScenario.node[23].veinsmobility  speed  ETV
5363	35154 4867 110 3678 6.25 46 160 0.973 11.648172402475 501.77898193398 2723.728558652
5362	40021 4559 110 3678 6.25 46 160 -4.197338104248 2.5 37.662351608276 286.19378619068
5361	44580 4745 101 3678 6 46 161 5.6500000953674 15.64999961853 2175.8626356125 30689.56543586
5360	49325 5095 92 3678 5.75 46 162 238.67572021484 483.14999389648 70115.64630127 31261411.3044
5359	54420 5075 92 3678 5.75 46 162 184.17810058594 483.14999389648 64371.070922852 27324271.236985
vector 5502  IntersectionExampleScenario.node[23].veinsmobility  acceleration  ETV
vector 5503  IntersectionExampleScenario.node[23].veinsmobility  co2emission  ETV
vector 5506  IntersectionExampleScenario.node[24].veinsmobility  posx  ETV
vector 5507  IntersectionExampleScenario.node[24].veinsmobility  posy  ETV
vector 5508  IntersectionExampleScenario.node[24].veinsmobility  speed  ETV
vector 5509  IntersectionExampleScenario.node[24].veinsmobility  acceleration  ETV
vector 5510  IntersectionExampleScenario.node[24].veinsmobility  co2emission  ETV
vector 5513  IntersectionExampleScenario.node[25].veinsmobility  posx  ETV
vector 5514  IntersectionExampleScenario.node[25].veinsmobility  posy  ETV
vector 5515  IntersectionExampleScenario.node[25].veinsmobility  speed  ETV
vector 5516  IntersectionExampleScenario.node[25].veinsmobility  acceleration  ETV
vector 5517  IntersectionExampleScenario.node[25].veinsmobility  co2emission  ETV
5349	60454 5661 43 4658 4 52.5 195 0.973 11.450879080643 557.33764826173 2817.1737426787
5348	66115 5146 43 4658 4 52.5 195 -8.487024307251 4 37.15309715271 481.82413438468
5347	71261 5544 36 4658 3.75 52.5 196 0 15.375 2210.497877121 30840.213827553
5346	76805 6168 31 4658 3.5 52.5 197 184.17810058594 733.24285888672 89279.085235596 44677126.947506
5345	82973 6194 31 4658 3.5 52.5 197 486.85000610352 486.85000610352 95909.451202393 46693516.90327
vector 5520  IntersectionExampleScenario.node[26].veinsmobility  posx  ETV
vector 5521  IntersectionExampleScenario.node[26].veinsmobility  posy  ETV
vector 5522  IntersectionExampleScenario.node[26].veinsmobility  speed  ETV
vector 5523  IntersectionExampleScenario.node[26].veinsmobility  acceleration  ETV
vector 5524  IntersectionExampleScenario.node[26].veinsmobility  co2emission  ETV
5356	89563 5905 50 4939 4.25 54.25 201 0.973 11.54047740176 590.83488995492 2942.3385049508
5355	95468 5376 50 4939 4.25 54.25 201 -4.5 2.5000019073486 39.699392318726 481.89629545334
5354	100844 5948 43 4939 4 54.25 202 0 15.632875442505 2321.1140927151 32991.406776989
5353	106792 6365 36 4939 3.75 54.25 203 159.76721191406 734.82908630371 89493.771774292 44222038.030108
5352	113157 6389 36 4939 3.75 54.25 203 486.85000610352 486.85000610352 98830.551239014 48115654.473927
vector 5527  IntersectionExampleScenario.node[27].veinsmobility  posx  ETV
vector 5528  IntersectionExampleScenario.node[27].veinsmobility  posy  ETV
vector 5529  IntersectionExampleScenario.node[27].veinsmobility  speed  ETV
vector 5534  IntersectionExampleScenario.node[28].veinsmobility  posx  ETV
vector 5535  IntersectionExampleScenario.node[28].veinsmobility  posy  ETV
vector 5530  IntersectionExampleScenario.node[27].veinsmobility  acceleration  ETV
vector 5531  IntersectionExampleScenario.node[27].veinsmobility  co2emission  ETV
vector 5536  IntersectionExampleScenario.node[28].veinsmobility  speed  ETV
vector 5537  IntersectionExampleScenario.node[28].veinsmobility  acceleration  ETV
vector 5538  IntersectionExampleScenario.node[28].veinsmobility  co2emission  ETV
5370	120338 6044 294 6138 11.25 63 208 0.973 11.200708441096 556.07922153575 2650.6116073284
5369	126382 5458 294 6138 11.25 63 208 -6.8640689849854 4 35.625318527222 445.86479464531
5368	131840 5846 283 6138 11 63 209 0 15.02499961853 2184.6829628944 29567.904340929
5367	137686 6668 272 6138 10.75 63 210 486.63604736328 785.82187652588 116982.14044952 67132480.294152
5366	144354 6603 272 6138 10.75 63 210 234.9931640625 483.14999389648 92787.186340332 42071423.107375
5384	150957 5929 459 6169 14.5 63.25 196 0.973 11.90022389248 580.93132017017 3001.4582852344
5383	156886 5756 459 6169 14.5 63.25 196 -4.5 2.5000009536743 39.869146347046 446.98679634791
5382	162642 6030 444 6169 14.25 63.25 197 0 16 2252.6659998018 31995.418088854
5381	168672 6285 429 6169 14 63.25 198 483.13418579102 797.07032012939 111538.77586365 64912474.998341
5380	174957 6297 429 6169 14 63.25 198 483.14999389648 733.10523986816 103870.43899536 55516173.766457
vector 5541  IntersectionExampleScenario.node[29].veinsmobility  posx  ETV
vector 5542  IntersectionExampleScenario.node[29].veinsmobility  posy  ETV
vector 5543  IntersectionExampleScenario.node[29].veinsmobility  speed  ETV
5419	181483 5119 1120 6490 23.25 66 172 0.973 11.648172402475 560.1673676142 3100.7077886947
5418	186602 5115 1120 6490 23.25 66 172 -3.6967544555664 2.5 39.699392318726 343.55425364116
5417	191717 5223 1095 6490 23 66 173 5.6500000953674 15.64999961853 2182.3116111755 29635.757711395
5416	196940 5559 1070 6490 22.75 66 174 486.85000610352 785.82187652588 99257.269386292 58362042.342214
5415	202499 5558 1070 6490 22.75 66 174 237.52587890625 483.14999389648 76064.665222168 34186385.65874
vector 5544  IntersectionExampleScenario.node[29].veinsmobility  acceleration  ETV
vector 5545  IntersectionExampleScenario.node[29].veinsmobility  co2emission  ETV
vector 5548  IntersectionExampleScenario.node[30].veinsmobility  posx  ETV
vector 5549  IntersectionExampleScenario.node[30].veinsmobility  posy  ETV
vector 5550  IntersectionExampleScenario.node[30].veinsmobility  speed  ETV
vector 5551  IntersectionExampleScenario.node[30].veinsmobility  acceleration  ETV
vector 5552  IntersectionExampleScenario.node[30].veinsmobility  co2emission  ETV
vector 5555  IntersectionExampleScenario.node[31].veinsmobility  posx  ETV
vector 5556  IntersectionExampleScenario.node[31].veinsmobility  posy  ETV
vector 5557  IntersectionExampleScenario.node[31].veinsmobility  speed  ETV
vector 5558  IntersectionExampleScenario.node[31].veinsmobility  acceleration  ETV
vector 5559  IntersectionExampleScenario.node[31].veinsmobility  co2emission  ETV
5391	209016 6206 613 7061 17 71.25 218 0.973 11.810082123732 611.78813366766 3292.8235630137
5390	215222 5733 613 7061 17 71.25 218 -7.3741683959961 4 38.850629806519 537.4329072791
5389	220955 5924 596 7061 16.75 71.25 219 0 15.875 2185.2575707436 30999.273592092
5388	226879 6943 579 7061 16.5 71.25 220 486.85000610352 735.24140930176 115358.90394592 61542470.680919
5387	233822 7010 579 7061 16.5 71.25 220 486.63604736328 785.82187652588 121574.18054962 69155716.76901
5377	240832 6691 364 7090 12.75 71.5 236 0.973 11.450879080643 604.22405593997 2877.7500948462
5376	247523 5728 364 7090 12.75 71.5 236 -38.727523803711 4 37.15309715271 1843.9283360029
5375	253251 6267 351 7090 12.5 71.5 237 0 15.375 2215.7225370407 31450.614910043
5374	259518 7578 338 7090 12.25 71.5 238 483.14999389648 483.14999389648 114989.69854736 55557272.151317
5373	267096 7550 338 7090 12.25 71.5 238 184.17810058594 733.24285888672 108669.93580627 53847008.759031
5398	274646 6526 685 7228 18 72.75 220 0.973 11.54047740176 614.22561426605 3034.0939682063
5397	281172 6859 685 7228 18 72.75 220 -4.2237319946289 2.5000019073486 41.314260482788 395.7668693395
5396	288031 6897 666 7228 17.75 72.75 221 0 15.995499610901 2222.7632302437 31597.3782678
5395	294928 7087 647 7228 17.5 72.75 222 483.14999389648 483.14999389648 107259.29864502 51822329.485682
5394	302015 7050 647 7228 17.5 72.75 222 184.17810058594 734.82130432129 100377.86688232 49464311.545078
5412	309065 5952 1095 7336 23 73.75 204 0.973 11.810082123732 572.13134733305 3015.1989813856
5411	315017 6209 1095 7336 23 73.75 204 -3.684713602066 2.5 39.699392318726 355.43344935885
5410	321226 6256 1070 7336 22.75 73.75 205 0 15.875 2191.3444236666 29954.361181939
5409	327482 6590 1047 7336 22.5 73.75 206 486.85000610352 734.85902404785 108423.0357666 58083659.650362
5408	334072 6573 1047 7336 22.5 73.75 206 486.85000610352 785.82187652588 115180.43824005 66262429.453032
5426	340645 5942 1315 7498 25.25 75.25 201 0.973 11.54047740176 562.1350066797 2808.3322162356
5425	346587 5882 1315 7498 25.25 75.25 201 -4.336051940918 2.5 37.492597579956 337.6848850258
5424	352469 6283 1290 7498 25 75.25 202 2.2266833782196 15.5 2282.8043732643 30134.97339722
5423	358752 6496 1265 7498 24.75 75.25 203 486.85000610352 486.85000610352 98830.551239014 48115654.473927
5422	365248 6476 1265 7498 24.75 75.25 203 236.70141601562 802.70781707764 107545.20006561 61558753.035864
5405	371724 6490 879 7552 20.5 75.75 222 0.97223939240464 11.648172402475 591.45123456285 2906.5015900363
5404	378214 6896 879 7552 20.5 75.75 222 -4.4420547485352 2.5 38.680875778198 375.4058068702
5403	385110 7081 858 7552 20.25 75.75 223 0 15.64999961853 2270.3903057761 29977.431100632
5402	392191 7151 837 7552 20 75.75 224 483.14999389648 733.66479492188 116625.72445679 61807575.901949
5401	399342 7128 837 7552 20 75.75 224 168.58435058594 486.93798828125 91083.201141357 39195238.589001
vector 5562  IntersectionExampleScenario.node[32].veinsmobility  posx  ETV
vector 5563  IntersectionExampleScenario.node[32].veinsmobility  posy  ETV
vector 5564  IntersectionExampleScenario.node[32].veinsmobility  speed  ETV
vector 5565  IntersectionExampleScenario.node[32].veinsmobility  acceleration  ETV
vector 5566  IntersectionExampleScenario.node[32].veinsmobility  co2emission  ETV
5433	406866 5871 1694 7870 29 78.75 200 0.973 11.200708441096 538.94008462931 2642.3477391522
5432	412737 5723 1694 7870 29 78.75 200 -2.5588064193726 2.5 35.795072555542 289.67231798408
5431	418460 6139 1667 7870 28.75 78.75 201 2.4871511459351 15.02499961853 2260.0458424091 28915.0433772
5430	424599 6463 1640 7870 28.5 78.75 202 486.85000610352 735.47381591797 107024.70307922 57767625.398546
5429	431062 6438 1640 7870 28.5 78.75 202 486.85000610352 802.22579193115 115404.31003571 68041169.275776
5468	437500 4577 3015 7920 41.5 79.25 152 0.973 12.134000403471 557.70784759677 3651.4407911694
5467	442077 4416 3015 7920 41.5 79.25 152 -3.4332580566406 2.5 41.396924972534 298.81839420935
5466	446493 4664 2982 7920 41.25 79.25 153 5.6500000953674 16.32328414917 2209.36373806 32698.029856333
5465	451157 4927 2951 7920 41 79.25 154 486.85000610352 486.85000610352 74974.900939941 36501530.980221
5464	456084 4913 2951 7920 41 79.25 154 238.80364990234 785.82187652588 80834.956993103 46403994.664592
5482	460997 4861 3184 8136 42.75 81.5 156 0.973 11.990504229548 517.45139440815 2784.6291163734
5481	465858 4438 3184 8136 42.75 81.5 156 -4.5 2.5 41.227170944214 243.11715291697
5480	470296 4786 3149 8136 42.5 81.5 157 5.6500000953674 16.125 2301.019744873 34540.768844177
5479	475082 5057 3114 8136 42.25 81.5 158 483.14999389648 483.14999389648 76337.699035645 36882558.823143
5478	480139 5006 3114 8136 42.25 81.5 158 162.00311279297 731.57333374023 68806.229995728 34442062.165643
5475	485145 5000 3048 8159 41.75 81.75 161 0.973 11.36141391502 499.34038570949 2614.2275838502
5474	490145 4340 3048 8159 41.75 81.75 161 -3.4165782928467 2.5 37.492597579956 268.68030164389
5473	494485 4864 3015 8159 41.5 81.75 162 5.6500000953674 15.25 2177.7739691734 30562.39110604
5472	499349 5212 2982 8159 41.25 81.75 163 238.38116455078 483.14999389648 70553.452911377 31459532.758469
5471	504561 5196 2982 8159 41.25 81.75 163 184.17810058594 483.20883178711 64791.694152832 27510452.537655
vector 5569  IntersectionExampleScenario.node[33].veinsmobility  posx  ETV
vector 5570  IntersectionExampleScenario.node[33].veinsmobility  posy  ETV
vector 5571  IntersectionExampleScenario.node[33].veinsmobility  speed  ETV
vector 5572  IntersectionExampleScenario.node[33].veinsmobility  acceleration  ETV
vector 5573  IntersectionExampleScenario.node[33].veinsmobility  co2emission  ETV
5440	510153 6176 2226 8586 34.25 86.5 210 0.973 10.916047529558 567.71810797517 2740.8624757215
5439	516329 5601 2226 8586 34.25 86.5 210 -7.1687469482422 4 34.77654838562 480.6405528464
5438	521930 6096 2199 8586 34 86.5 211 0 14.625 2170.6449391842 28942.41710722
5437	528026 6758 2172 8586 33.75 86.5 212 184.17810058594 483.21871948242 87501.6746521 38098147.349008
5436	534784 6776 2172 8586 33.75 86.5 212 486.85000610352 732.32023620605 111819.44338989 60036150.716796
vector 5576  IntersectionExampleScenario.node[34].veinsmobility  posx  ETV
vector 5577  IntersectionExampleScenario.node[34].veinsmobility  posy  ETV
vector 5578  IntersectionExampleScenario.node[34].veinsmobility  speed  ETV
vector 5579  IntersectionExampleScenario.node[34].veinsmobility  acceleration  ETV
vector 5580  IntersectionExampleScenario.node[34].veinsmobility  co2emission  ETV
5461	541956 5693 2922 8758 40.75 88.75 193 0.973 10.916047529558 536.81142759824 2544.4466444535
5460	547649 5711 2922 8758 40.75 88.75 193 -2.7159881591797 2.5 36.98334312439 298.88455135108
5459	553360 5968 2893 8758 40.5 88.75 194 1.8133548498154 14.911221504211 2179.0865471363 28682.009235202
5458	559328 6196 2864 8758 40.25 88.75 195 184.17810058594 483.14999389648 79217.012939453 34032625.72515
5457	565524 6233 2864 8758 40.25 88.75 195 486.85000610352 731.99871826172 103221.52838135 55638095.886931
vector 5583  IntersectionExampleScenario.node[35].veinsmobility  posx  ETV
vector 5584  IntersectionExampleScenario.node[35].veinsmobility  posy  ETV
5524	571909 4805 4857 8958 53.75 92.25 155 0.973 11.648172402475 491.9303421564 2779.4108043159
5523	576714 4623 4857 8958 53.75 92.25 155 -3.7632713317871 2.5 38.341367721558 225.73082913264
5522	581337 4755 4816 8958 53.5 92.25 156 5.6500000953674 15.64999961853 2222.3964118958 32296.487566356
5521	586092 4984 4775 8958 53.25 92.25 157 184.17810058594 734.4375 70479.036514282 35806838.385531
5520	591076 5025 4775 8958 53.25 92.25 157 486.85000610352 486.85000610352 76435.450958252 37212599.76555
vector 5585  IntersectionExampleScenario.node[35].veinsmobility  speed  ETV
vector 5586  IntersectionExampleScenario.node[35].veinsmobility  acceleration  ETV
vector 5587  IntersectionExampleScenario.node[35].veinsmobility  co2emission  ETV
5447	596345 6441 2597 9066 37.75 94.25 227 0.973 11.648172402475 594.02241258103 2934.7490077118
5446	602786 5805 2597 9066 37.75 94.25 227 -7.4922199249268 4 38.171613693237 479.41769177267
5445	608591 6135 2570 9066 37.5 94.25 228 0 15.64999961853 2175.1207141876 30519.901571347
5444	614726 7318 2543 9066 37.25 94.25 229 486.63604736328 785.82187652588 126139.84926605 71483071.141512
5443	622044 7254 2543 9066 37.25 94.25 229 237.46997070312 483.14999389648 102472.56219482 46896471.087413
vector 5590  IntersectionExampleScenario.node[36].veinsmobility  posx  ETV
vector 5591  IntersectionExampleScenario.node[36].veinsmobility  posy  ETV
vector 5592  IntersectionExampleScenario.node[36].veinsmobility  speed  ETV
vector 5593  IntersectionExampleScenario.node[36].veinsmobility  acceleration  ETV
vector 5594  IntersectionExampleScenario.node[36].veinsmobility  co2emission  ETV
5454	629694 7060 2783 9206 39.5 97.25 232 0.973 11.36141391502 596.87391405921 2803.9333548262
5453	636754 6918 2783 9206 39.5 97.25 232 -4.5 2.5 36.98334312439 412.20969725815
5452	643672 7185 2756 9206 39.25 97.25 233 0 15.25 2259.0342807211 30743.257994179
5451	650857 7470 2729 9206 39 97.25 234 486.85000610352 805.05782318115 130941.30558777 75593527.456677
5450	658327 7479 2729 9206 39 97.25 234 236.92175292969 483.14999389648 104701.15390015 47917417.492305
vector 5597  IntersectionExampleScenario.node[37].veinsmobility  posx  ETV
vector 5598  IntersectionExampleScenario.node[37].veinsmobility  posy  ETV
vector 5599  IntersectionExampleScenario.node[37].veinsmobility  speed  ETV
vector 5600  IntersectionExampleScenario.node[37].veinsmobility  acceleration  ETV
vector 5601  IntersectionExampleScenario.node[37].veinsmobility  co2emission  ETV
vector 5604  IntersectionExampleScenario.node[38].veinsmobility  posx  ETV
vector 5605  IntersectionExampleScenario.node[38].veinsmobility  posy  ETV
vector 5606  IntersectionExampleScenario.node[38].veinsmobility  speed  ETV
5489	666431 6495 3328 9294 43.75 98.75 221 0.973 11.36141391502 599.80887675652 2890.8490838859
5488	672926 6716 3328 9294 43.75 98.75 221 -3.8798484802246 2.5000009536743 40.208654403687 351.60658370752
5487	679642 6787 3291 9294 43.5 98.75 222 0 15.756160736084 2235.1003314182 30195.357068561
5486	686429 7117 3254 9294 43.25 98.75 223 486.85000610352 799.80079650879 125435.45552063 72653151.944002
5485	693546 7132 3254 9294 43.25 98.75 223 238.07037353516 483.14999389648 99846.885131836 45709207.356565
vector 5607  IntersectionExampleScenario.node[38].veinsmobility  acceleration  ETV
vector 5608  IntersectionExampleScenario.node[38].veinsmobility  co2emission  ETV
vector 5611  IntersectionExampleScenario.node[39].veinsmobility  posx  ETV
vector 5612  IntersectionExampleScenario.node[39].veinsmobility  posy  ETV
vector 5613  IntersectionExampleScenario.node[39].veinsmobility  speed  ETV
vector 5614  IntersectionExampleScenario.node[39].veinsmobility  acceleration  ETV
vector 5615  IntersectionExampleScenario.node[39].veinsmobility  co2emission  ETV
5503	701241 6512 3717 9482 46.25 101.5 222 0.973 11.36141391502 579.0257833321 2769.5765455933
5502	707753 6575 3717 9482 46.25 101.5 222 -4.5 2.5 37.492597579956 349.76226307998
5501	714328 6812 3678 9482 46 101.5 223 1.3836193084717 15.25 2266.1465632915 28992.595725953
5500	721140 7152 3639 9482 45.75 101.5 224 486.85000610352 808.40509796143 127655.63288116 74970398.592804
5499	728292 7164 3639 9482 45.75 101.5 224 238.71929931641 483.14999389648 100049.94619751 45716991.919136
vector 5618  IntersectionExampleScenario.node[40].veinsmobility  posx  ETV
vector 5619  IntersectionExampleScenario.node[40].veinsmobility  posy  ETV
vector 5620  IntersectionExampleScenario.node[40].veinsmobility  speed  ETV
vector 5621  IntersectionExampleScenario.node[40].veinsmobility  acceleration  ETV
vector 5622  IntersectionExampleScenario.node[40].veinsmobility  co2emission  ETV
5496	735852 6631 3406 9553 44.25 102.5 234 0.973 11.90022389248 637.36900749057 3227.6074983457
5495	742483 6002 3406 9553 44.25 102.5 234 -9.3262996673584 4 41.227170944214 547.15541349151
5494	748485 6342 3367 9553 44 102.5 235 0 16 2330.1938390732 34360.806008582
5493	754827 7563 3328 9553 43.75 102.5 236 483.14999389648 483.14999389648 114023.39855957 55090404.318113
5492	762390 7523 3328 9553 43.75 102.5 236 152.796875 731.40208435059 104834.27532959 51325418.492289
5510	769913 6099 4247 9570 49.75 102.75 213 0.973 12.099024792222 606.51540830404 3198.7673532426
5509	776012 5919 4247 9570 49.75 102.75 213 -7.2880325317383 4 41.346998214722 488.0600490848
5508	781931 5993 4209 9570 49.5 102.75 214 0 16.27499961853 2208.0342059135 32326.256611968
5507	787924 6894 4170 9570 49.25 102.75 215 486.85000610352 486.85000610352 104672.75131226 50959929.615243
5506	794818 6872 4170 9570 49.25 102.75 215 237.92071533203 785.82187652588 110881.59786224 61201687.760981
vector 5625  IntersectionExampleScenario.node[41].veinsmobility  posx  ETV
vector 5626  IntersectionExampleScenario.node[41].veinsmobility  posy  ETV
5538	801842 5237 5821 9706 60.5 104.75 178 0.973 12.26218747632 565.12235064087 3339.3012743264
5537	807079 5325 5821 9706 60.5 104.75 178 -2.9800567626953 2.5 41.396924972534 345.56530001316
5536	812404 5416 5788 9706 60.25 104.75 179 3.1923477649689 16.5 2179.4674916267 30031.626226516
5535	817820 5777 5755 9706 60 104.75 180 238.45550537109 483.14999389648 79253.81942749 35817768.187452
5534	823597 5747 5755 9706 60 104.75 180 184.17810058594 483.14999389648 72441.775726318 30898355.852822
vector 5627  IntersectionExampleScenario.node[41].veinsmobility  speed  ETV
vector 5628  IntersectionExampleScenario.node[41].veinsmobility  acceleration  ETV
vector 5629  IntersectionExampleScenario.node[41].veinsmobility  co2emission  ETV
5517	829588 6342 4658 9744 52.5 105.25 212 0.973 11.36141391502 566.16555331298 2764.5572514283
5516	835930 6294 4658 9744 52.5 105.25 212 -4.4320678710938 2.5 36.813589096069 384.99247867039
5515	842224 6411 4619 9744 52.25 105.25 213 0 15.25 2241.6159788202 30174.45247933
5514	848635 6858 4580 9744 52 105.25 214 486.85000610352 733.3656463623 112588.26353455 60281181.236406
5513	855493 6857 4580 9744 52 105.25 214 486.70330810547 800.04531860352 120486.4384613 70001245.755291
vector 5632  IntersectionExampleScenario.node[42].veinsmobility  posx  ETV
vector 5633  IntersectionExampleScenario.node[42].veinsmobility  posy  ETV
vector 5634  IntersectionExampleScenario.node[42].veinsmobility  speed  ETV
vector 5635  IntersectionExampleScenario.node[42].veinsmobility  acceleration  ETV
vector 5636  IntersectionExampleScenario.node[42].veinsmobility  co2emission  ETV
5531	862746 5723 5755 9994 60 108.25 194 0.973 11.069991931473 536.15232724787 2616.1010896936
5530	868469 6009 5755 9994 60 108.25 194 -2.203670501709 2.5000019073486 34.606801986694 298.02497822816
5529	874478 6242 5723 9994 59.75 108.25 195 3.22110414505 14.841548919678 2214.6884849072 27786.693766956
5528	880720 6293 5691 9994 59.5 108.25 196 234.89526367188 486.85000610352 86333.424499512 39130614.687677
5527	887013 6293 5691 9994 59.5 108.25 196 483.1340637207 785.82187652588 110769.94541931 64498978.389442
5545	893306 5264 6519 10120 66.25 109.75 175 0.973 11.36141391502 534.34976891821 2873.1081744291
5544	898570 5214 6519 10120 66.25 109.75 175 -3.2654190063477 2.5 36.98334312439 323.24359579719
5543	903784 5357 6490 10120 66 109.75 176 5.6500000953674 15.25 2187.3736715317 28729.443703017
5542	909141 5625 6461 10120 65.75 109.75 177 486.85000610352 733.88020324707 94587.557861328 51528522.554975
5541	914766 5703 6461 10120 65.75 109.75 177 486.68505859375 785.82187652588 101060.82283783 59483935.030365
vector 5639  IntersectionExampleScenario.node[43].veinsmobility  posx  ETV
vector 5640  IntersectionExampleScenario.node[43].veinsmobility  posy  ETV
vector 5641  IntersectionExampleScenario.node[43].veinsmobility  speed  ETV
5552	920698 5066 6947 10248 70.25 111.25 165 0.973 11.491315480942 515.07432293658 2773.0478210933
5551	925764 5271 6947 10248 70.25 111.25 165 -3.2466430664062 2.5 36.98334312439 261.15820134321
5550	931035 5333 6920 10248 70 111.25 166 5.6500000953674 15.431436538696 2203.2980699539 30486.836492187
5549	936368 5390 6893 10248 69.75 111.25 167 483.14999389648 732.2467956543 89313.644241333 48739082.155749
5548	941758 5369 6893 10248 69.75 111.25 167 184.17810058594 486.85000610352 66901.438812256 28633950.996022
vector 5642  IntersectionExampleScenario.node[43].veinsmobility  acceleration  ETV
vector 5643  IntersectionExampleScenario.node[43].veinsmobility  co2emission  ETV
vector 5646  IntersectionExampleScenario.node[44].veinsmobility  posx  ETV
vector 5647  IntersectionExampleScenario.node[44].veinsmobility  posy  ETV
vector 5648  IntersectionExampleScenario.node[44].veinsmobility  speed  ETV
vector 5649  IntersectionExampleScenario.node[44].veinsmobility  acceleration  ETV
vector 5650  IntersectionExampleScenario.node[44].veinsmobility  co2emission  ETV
5559	947690 5339 7032 10653 71 115.5 179 0.973 12.353032912318 587.12342023207 3534.4029646303
5558	953029 5196 7032 10653 71 115.5 179 -7.0241565704346 4 41.736440658569 526.17726262263
5557	958225 5266 7003 10653 70.75 115.5 180 0 16.625 2200.2021157742 32565.066013746
5556	963491 5854 6974 10653 70.5 115.5 181 184.17810058594 486.85000610352 73976.596160889 32088360.818248
5555	969345 5880 6974 10653 70.5 115.5 181 237.53265380859 486.85000610352 80184.140136719 36491166.700029
vector 5653  IntersectionExampleScenario.node[45].veinsmobility  posx  ETV
vector 5654  IntersectionExampleScenario.node[45].veinsmobility  posy  ETV
vector 5655  IntersectionExampleScenario.node[45].veinsmobility  speed  ETV
vector 5656  IntersectionExampleScenario.node[45].veinsmobility  acceleration  ETV
vector 5657  IntersectionExampleScenario.node[45].veinsmobility  co2emission  ETV
5566	975621 5256 7636 11029 76.5 119 171 0.973 11.648172402475 545.47162145839 3052.7718516033
5565	980877 4975 7636 11029 76.5 119 171 -3.8386764526367 2.5 38.341367721558 352.69267802482
5564	985852 5299 7608 11029 76.25 119 172 5.5605945587158 15.64999961853 2186.9449033737 29792.892508408
5563	991151 5621 7579 11029 76 119 173 184.17810058594 483.17391967773 69236.198547363 29470842.249134
5562	996772 5650 7579 11029 76 119 173 486.85000610352 733.64115905762 92449.293243408 50361043.395095
vector 5660  IntersectionExampleScenario.node[46].veinsmobility  posx  ETV
vector 5661  IntersectionExampleScenario.node[46].veinsmobility  posy  ETV
vector 5662  IntersectionExampleScenario.node[46].veinsmobility  speed  ETV
vector 5663  IntersectionExampleScenario.node[46].veinsmobility  acceleration  ETV
vector 5664  IntersectionExampleScenario.node[46].veinsmobility  co2emission  ETV
vector 5667  IntersectionExampleScenario.node[47].veinsmobility  posx  ETV
vector 5668  IntersectionExampleScenario.node[47].veinsmobility  posy  ETV
vector 5669  IntersectionExampleScenario.node[47].veinsmobility  speed  ETV
vector 5670  IntersectionExampleScenario.node[47].veinsmobility  acceleration  ETV
vector 5671  IntersectionExampleScenario.node[47].veinsmobility  co2emission  ETV
vector 5674  IntersectionExampleScenario.node[48].veinsmobility  posx  ETV
vector 5675  IntersectionExampleScenario.node[48].veinsmobility  posy  ETV
vector 5676  IntersectionExampleScenario.node[48].veinsmobility  speed  ETV
vector 5677  IntersectionExampleScenario.node[48].veinsmobility  acceleration  ETV
vector 5678  IntersectionExampleScenario.node[48].veinsmobility  co2emission  ETV
vector 5681  IntersectionExampleScenario.node[49].veinsmobility  posx  ETV
vector 5682  IntersectionExampleScenario.node[49].veinsmobility  posy  ETV
vector 5683  IntersectionExampleScenario.node[49].veinsmobility  speed  ETV
vector 5688  IntersectionExampleScenario.node[50].veinsmobility  posx  ETV
vector 5689  IntersectionExampleScenario.node[50].veinsmobility  posy  ETV
vector 5684  IntersectionExampleScenario.node[49].veinsmobility  acceleration  ETV
vector 5685  IntersectionExampleScenario.node[49].veinsmobility  co2emission  ETV
vector 5690  IntersectionExampleScenario.node[50].veinsmobility  speed  ETV
vector 5691  IntersectionExampleScenario.node[50].veinsmobility  acceleration  ETV
vector 5692  IntersectionExampleScenario.node[50].veinsmobility  co2emission  ETV
5580	1004402 5855 8741 12633 88.5 135.25 188 0.97223939240464 11.648172402475 562.67276922157 2955.462599937
5579	1010257 5355 8741 12633 88.5 135.25 188 -7.1630640029907 4 38.680875778198 475.21258299252
5578	1015612 5745 8723 12633 88.25 135.25 189 0 15.64999961853 2217.0010960102 31576.666777073
5577	1021357 6329 8704 12633 88 135.25 190 486.85000610352 486.85000610352 92501.501159668 45034356.404169
5576	1027686 6317 8704 12633 88 135.25 190 235.46472167969 785.82187652588 98237.625190735 54958065.549055
5573	1034003 6478 8254 12696 82.75 136 214 0.973 11.200708441096 567.16156351898 2715.6115235913
5572	1040481 5960 8254 12696 82.75 136 214 -7.7418632507324 4 35.795072555542 472.77218371371
5571	1046441 6295 8230 12696 82.5 136 215 0 15.02499961853 2218.4801292419 30406.845747723
5570	1052736 7168 8205 12696 82.25 136 216 483.14999389648 483.14999389648 104360.39868164 50421725.986069
5569	1059904 7145 8205 12696 82.25 136 216 184.17810058594 735.35032653809 98442.788192749 49199230.213286
vector 5695  IntersectionExampleScenario.node[51].veinsmobility  posx  ETV
vector 5696  IntersectionExampleScenario.node[51].veinsmobility  posy  ETV
vector 5697  IntersectionExampleScenario.node[51].veinsmobility  speed  ETV
5587	1067278 5581 8988 12758 92.75 136.75 177 0.973 11.810082123732 547.97632326478 3002.4378833619
5586	1072859 5472 8988 12758 92.75 136.75 177 -4.5 2.5 39.699392318726 378.8869225009
5585	1078331 5647 8973 12758 92.5 136.75 178 1.5749323368073 15.875 2209.4283789396 30976.955702933
5584	1083978 5986 8958 12758 92.25 136.75 179 486.85000610352 735.04100036621 95291.26210022 51699832.30246
5583	1089964 5976 8958 12758 92.25 136.75 179 486.7880859375 790.18281555176 101635.29750824 59566934.360884
vector 5698  IntersectionExampleScenario.node[51].veinsmobility  acceleration  ETV
vector 5699  IntersectionExampleScenario.node[51].veinsmobility  co2emission  ETV
vector 5702  IntersectionExampleScenario.node[52].veinsmobility  posx  ETV
vector 5703  IntersectionExampleScenario.node[52].veinsmobility  posy  ETV
vector 5704  IntersectionExampleScenario.node[52].veinsmobility  speed  ETV
vector 5705  IntersectionExampleScenario.node[52].veinsmobility  acceleration  ETV
vector 5706  IntersectionExampleScenario.node[52].veinsmobility  co2emission  ETV
vector 5709  IntersectionExampleScenario.node[53].veinsmobility  posx  ETV
vector 5710  IntersectionExampleScenario.node[53].veinsmobility  posy  ETV
vector 5711  IntersectionExampleScenario.node[53].veinsmobility  speed  ETV
vector 5716  IntersectionExampleScenario.node[54].veinsmobility  posx  ETV
vector 5717  IntersectionExampleScenario.node[54].veinsmobility  posy  ETV
vector 5712  IntersectionExampleScenario.node[53].veinsmobility  acceleration  ETV
vector 5713  IntersectionExampleScenario.node[53].veinsmobility  co2emission  ETV
vector 5718  IntersectionExampleScenario.node[54].veinsmobility  speed  ETV
vector 5723  IntersectionExampleScenario.node[55].veinsmobility  posx  ETV
vector 5724  IntersectionExampleScenario.node[55].veinsmobility  posy  ETV
vector 5719  IntersectionExampleScenario.node[54].veinsmobility  acceleration  ETV
vector 5720  IntersectionExampleScenario.node[54].veinsmobility  co2emission  ETV
vector 5725  IntersectionExampleScenario.node[55].veinsmobility  speed  ETV
vector 5726  IntersectionExampleScenario.node[55].veinsmobility  acceleration  ETV
vector 5727  IntersectionExampleScenario.node[55].veinsmobility  co2emission  ETV
5615	1097691 5237 9431 13127 100.75 140.75 161 0.973 11.216714322776 477.6726332417 2568.905587544
5614	1102928 5036 9431 13127 100.75 140.75 161 -3.6730155944824 2.5 35.455564498901 209.95022058089
5613	1107964 5256 9414 13127 100.5 140.75 162 5.6500000953674 15.047435760498 2222.6507844925 30993.749826359
5612	1113220 5511 9396 13127 100.25 140.75 163 486.85000610352 486.85000610352 79356.550994873 38634737.336208
5611	1118731 5500 9396 13127 100.25 140.75 163 235.20349121094 785.82187652588 84747.512443542 48385975.321209
5636	1124231 5045 9805 13489 106 144.25 154 0.973 12.26218747632 525.68338815994 3151.7311454308
5635	1129276 4798 9805 13489 106 144.25 154 -3.7528343200684 2.5 41.396924972534 308.48440106635
5634	1134074 4906 9784 13489 105.75 144.25 155 5.6500000953674 16.5 2178.9213142395 32252.656898312
5633	1138980 5288 9763 13489 105.5 144.25 156 237.99243164062 483.14999389648 67624.641601562 30190066.273007
5632	1144268 5262 9763 13489 105.5 144.25 156 184.17810058594 483.14999389648 61943.960205078 26297765.118542
5629	1149530 5229 9744 13489 105.25 144.25 157 0.973 11.200708441096 458.41764794315 2213.1256455162
5628	1154759 4682 9744 13489 105.25 144.25 157 -3.017463684082 2.5 36.643835067749 170.24726875784
5627	1159441 5135 9725 13489 105 144.25 158 5.6500000953674 15.02499961853 2208.7128276825 31422.938602436
5626	1164576 5391 9706 13489 104.75 144.25 159 486.85000610352 486.85000610352 77409.150970459 37686645.622436
5625	1169967 5374 9706 13489 104.75 144.25 159 238.630859375 785.82187652588 82953.887611389 47463960.274339
vector 5730  IntersectionExampleScenario.node[56].veinsmobility  posx  ETV
vector 5731  IntersectionExampleScenario.node[56].veinsmobility  posy  ETV
vector 5732  IntersectionExampleScenario.node[56].veinsmobility  speed  ETV
vector 5733  IntersectionExampleScenario.node[56].veinsmobility  acceleration  ETV
vector 5734  IntersectionExampleScenario.node[56].veinsmobility  co2emission  ETV
vector 5737  IntersectionExampleScenario.node[57].veinsmobility  posx  ETV
vector 5738  IntersectionExampleScenario.node[57].veinsmobility  posy  ETV
vector 5739  IntersectionExampleScenario.node[57].veinsmobility  speed  ETV
vector 5740  IntersectionExampleScenario.node[57].veinsmobility  acceleration  ETV
vector 5741  IntersectionExampleScenario.node[57].veinsmobility  co2emission  ETV
vector 5744  IntersectionExampleScenario.node[58].veinsmobility  posx  ETV
vector 5745  IntersectionExampleScenario.node[58].veinsmobility  posy  ETV
vector 5746  IntersectionExampleScenario.node[58].veinsmobility  speed  ETV
vector 5747  IntersectionExampleScenario.node[58].veinsmobility  acceleration  ETV
vector 5748  IntersectionExampleScenario.node[58].veinsmobility  co2emission  ETV
5594	1176529 6494 9180 13977 96.75 149 210 0.973 11.200708441096 562.26027713397 2698.6640707353
5593	1183023 5911 9180 13977 96.75 149 210 -8.6544380187988 4 35.795072555542 478.35016826786
5592	1188934 6327 9167 13977 96.5 149 211 0 15.02499961853 2218.0963425636 30381.5057129
5591	1195261 7122 9154 13977 96.25 149 212 184.17810058594 735.35032653809 96552.385772705 48305923.419868
5590	1202383 7144 9154 13977 96.25 149 212 486.85000610352 486.85000610352 103212.20129395 50248860.829914
vector 5751  IntersectionExampleScenario.node[59].veinsmobility  posx  ETV
vector 5752  IntersectionExampleScenario.node[59].veinsmobility  posy  ETV
vector 5753  IntersectionExampleScenario.node[59].veinsmobility  speed  ETV
vector 5754  IntersectionExampleScenario.node[59].veinsmobility  acceleration  ETV
vector 5755  IntersectionExampleScenario.node[59].veinsmobility  co2emission  ETV
5601	1209923 6413 9262 14091 98.25 150 208 0.973 12.0645516977 636.01370890009 3272.9035537857
5600	1216336 6213 9262 14091 98.25 150 208 -4.5 2.5000038146973 42.309438705444 509.80669383079
5599	1222549 6446 9247 14091 98 150 209 0 16.2998046875 2300.2469444871 33588.468258953
5598	1228995 7051 9232 14091 97.75 150 210 163.88433837891 734.09669494629 93660.536773682 46348005.505402
5597	1236046 7087 9232 14091 97.75 150 210 486.85000610352 486.85000610352 102238.50128174 49774814.973028
5622	1243133 6331 9553 14373 102.5 152.75 202 0.973 11.810082123732 579.1992298218 3060.8016172734
5621	1249464 6290 9553 14373 102.5 152.75 202 -3.8426330089569 2.5000004768372 39.869146347046 368.58320073335
5620	1255754 6562 9535 14373 102.25 152.75 203 0 15.875 2248.6507069692 30894.423352844
5619	1262316 6877 9516 14373 102 152.75 204 169.67028808594 483.14999389648 82387.539855957 35343131.607921
5618	1269193 6904 9516 14373 102 152.75 204 486.85000610352 734.49797058105 107398.95257568 57551137.225454
5643	1276097 5508 10271 14521 111.5 154.5 173 0.973 11.54047740176 535.58490788565 2939.2706102964
5642	1281605 5345 10271 14521 111.5 154.5 173 -3.6970367431641 2.5 37.15309715271 306.62250582141
5641	1286950 5674 10248 14521 111.25 154.5 174 5.6500000953674 15.5 2217.9067077637 29693.307830427
5640	1292624 5920 10225 14521 111 154.5 175 184.17810058594 733.81727600098 78181.531524658 39160289.522695
5639	1298544 5949 10225 14521 111 154.5 175 486.85000610352 486.85000610352 85198.751068115 41479012.477524
vector 5758  IntersectionExampleScenario.node[60].veinsmobility  posx  ETV
vector 5759  IntersectionExampleScenario.node[60].veinsmobility  posy  ETV
vector 5760  IntersectionExampleScenario.node[60].veinsmobility  speed  ETV
vector 5761  IntersectionExampleScenario.node[60].veinsmobility  acceleration  ETV
vector 5762  IntersectionExampleScenario.node[60].veinsmobility  co2emission  ETV
vector 5765  IntersectionExampleScenario.node[61].veinsmobility  posx  ETV
vector 5766  IntersectionExampleScenario.node[61].veinsmobility  posy  ETV
vector 5767  IntersectionExampleScenario.node[61].veinsmobility  speed  ETV
vector 5768  IntersectionExampleScenario.node[61].veinsmobility  acceleration  ETV
vector 5769  IntersectionExampleScenario.node[61].veinsmobility  co2emission  ETV
vector 5772  IntersectionExampleScenario.node[62].veinsmobility  posx  ETV
vector 5773  IntersectionExampleScenario.node[62].veinsmobility  posy  ETV
vector 5774  IntersectionExampleScenario.node[62].veinsmobility  speed  ETV
vector 5779  IntersectionExampleScenario.node[63].veinsmobility  posx  ETV
vector 5780  IntersectionExampleScenario.node[63].veinsmobility  posy  ETV
vector 5775  IntersectionExampleScenario.node[62].veinsmobility  acceleration  ETV
vector 5776  IntersectionExampleScenario.node[62].veinsmobility  co2emission  ETV
vector 5781  IntersectionExampleScenario.node[63].veinsmobility  speed  ETV
5608	1305910 7178 9311 14874 99 158.5 239 0.973 11.450879080643 601.71442240935 2864.7678670658
5607	1313088 6446 9311 14874 99 158.5 239 -7.3439340591431 4 37.32285118103 471.71975753043
5606	1319534 6876 9294 14874 98.75 158.5 240 0 15.375 2212.9979789257 30954.471572816
5605	1326410 8133 9277 14874 98.5 158.5 241 236.18798828125 785.82187652588 123701.23516083 67726289.946572
5604	1334543 8148 9277 14874 98.5 158.5 241 483.14999389648 483.14999389648 116439.14852905 56257573.901123
vector 5782  IntersectionExampleScenario.node[63].veinsmobility  acceleration  ETV
vector 5783  IntersectionExampleScenario.node[63].veinsmobility  co2emission  ETV
5657	1342858 5694 10732 15108 116.25 160.75 179 0.973 11.450879080643 530.64859571772 2794.7313140857
5656	1348552 5598 10732 15108 116.25 160.75 179 -2.2158126831055 2.5000019073486 37.15309715271 287.51541395256
5655	1354150 5837 10705 15108 116 160.75 180 4.0867757797241 15.375 2216.6035313606 29477.560675406
5654	1359987 6149 10678 15108 115.75 160.75 181 483.12255859375 785.82187652588 102725.17766571 60129304.802887
5653	1366136 6148 10678 15108 115.75 160.75 181 483.14999389648 735.28810119629 96155.209030151 52126888.329094
vector 5786  IntersectionExampleScenario.node[64].veinsmobility  posx  ETV
vector 5787  IntersectionExampleScenario.node[64].veinsmobility  posy  ETV
vector 5788  IntersectionExampleScenario.node[64].veinsmobility  speed  ETV
vector 5789  IntersectionExampleScenario.node[64].veinsmobility  acceleration  ETV
vector 5790  IntersectionExampleScenario.node[64].veinsmobility  co2emission  ETV
5678	1372680 5089 11589 15401 124.75 163.5 156 0.973 11.719683988234 513.55667161584 3066.3029686853
5677	1377769 4782 11589 15401 124.75 163.5 156 -3.3926086425781 2.5 38.511121749878 255.48303737046
5676	1382551 5108 11564 15401 124.5 163.5 157 5.6500000953674 15.749452590942 2219.450003624 32030.756341242
5675	1387659 5350 11539 15401 124.25 163.5 158 236.23480224609 785.82187652588 82532.752510071 47268475.89662
5674	1393009 5373 11539 15401 124.25 163.5 158 483.14999389648 483.14999389648 76337.699035645 36882558.823143
5671	1398382 5776 11315 15741 122 167 181 0.973 11.810082123732 557.54103746545 3023.5015768994
5670	1404158 5507 11315 15741 122 167 181 -7.6570272445679 4 39.190130233765 493.56133293593
5669	1409665 5626 11290 15741 121.75 167 182 0 15.875 2174.6031579971 30950.724161891
5668	1415291 6155 11265 15741 121.5 167 183 237.61102294922 483.14999389648 80389.290283203 36271404.744351
5667	1421446 6200 11265 15741 121.5 167 183 184.17810058594 483.36395263672 74400.049041748 32086677.825154
5650	1427646 6545 10528 15764 114.25 167.25 213 0.973 11.810082123732 586.91994275247 3046.9145177883
5649	1434191 6107 10528 15764 114.25 167.25 213 -6.8117866516113 4 38.850629806519 475.00774497838
5648	1440298 6293 10503 15764 114 167.25 214 0 15.875 2186.7029876709 30970.845276154
5647	1446591 7235 10478 15764 113.75 167.25 215 486.85000610352 735.24140930176 112924.65391541 60357356.038704
5646	1453826 7303 10478 15764 113.75 167.25 215 486.63604736328 785.82187652588 119088.71927643 67920182.6531
5664	1461129 5892 11219 15856 121 168.25 190 0.973 11.648172402475 548.58945917442 2892.479736322
5663	1467021 6112 11219 15856 121 168.25 190 -2.3847312927246 2.5000019073486 39.020376205444 311.15602220748
5662	1473133 6340 11196 15856 120.75 168.25 191 1.3648465871811 15.64999961853 2221.435639143 30314.57462376
5661	1479473 6528 11173 15856 120.5 168.25 192 486.85000610352 486.85000610352 93475.201171875 45508402.261055
5660	1486001 6513 11173 15856 120.5 168.25 192 235.36755371094 785.82187652588 99968.281745911 56197686.928425
5685	1492514 5408 11818 15902 127 168.75 168 0.973 11.810082123732 546.97855035118 3024.1638986012
5684	1497922 5214 11818 15902 127 168.75 168 -3.9563941955566 2.5 41.566686630249 329.29106988526
5683	1503136 5433 11791 15902 126.75 168.75 169 3.5833015441895 16.084247589111 2181.2875759602 31136.68694014
5682	1508569 5774 11764 15902 126.5 168.75 170 237.70495605469 483.14999389648 74378.442443848 33450063.563053
5681	1514343 5754 11764 15902 126.5 168.75 170 184.17810058594 483.14999389648 68269.931976318 29161765.501073
5692	1520097 5489 11876 16086 127.5 170.75 174 0.973 11.810082123732 580.38715149227 3398.8110761543
5691	1525586 5280 11876 16086 127.5 170.75 174 -3.0617942810059 2.5000019073486 41.566686630249 374.04605281868
5690	1530866 5608 11847 16086 127.25 170.75 175 5.6500000953674 16.088176727295 2180.9812550545 29664.554290219
5689	1536474 5973 11818 16086 127 170.75 176 486.85000610352 732.28399658203 93441.450332642 50529647.423022
5688	1542447 5969 11818 16086 127 170.75 176 486.85000610352 785.82187652588 100517.74642181 59129691.048965
vector 5793  IntersectionExampleScenario.node[65].veinsmobility  posx  ETV
vector 5794  IntersectionExampleScenario.node[65].veinsmobility  posy  ETV
vector 5795  IntersectionExampleScenario.node[65].veinsmobility  speed  ETV
5699	1548645 5185 12779 16537 137 175.75 156 0.973 11.54047740176 464.21906764276 2334.0371168052
5698	1553830 4639 12779 16537 137 175.75 156 -3.3398857116699 2.5 37.15309715271 186.6448788828
5697	1558469 5103 12758 16537 136.75 175.75 157 5.6500000953674 15.5 2213.6558437347 31783.54138806
5696	1563572 5373 12737 16537 136.5 175.75 158 483.14999389648 483.14999389648 76337.699035645 36882558.823143
5695	1568945 5337 12737 16537 136.5 175.75 158 184.17810058594 732.48867797852 70860.174743652 35963111.512037
vector 5796  IntersectionExampleScenario.node[65].veinsmobility  acceleration  ETV
vector 5797  IntersectionExampleScenario.node[65].veinsmobility  co2emission  ETV
vector 5800  IntersectionExampleScenario.node[66].veinsmobility  posx  ETV
vector 5801  IntersectionExampleScenario.node[66].veinsmobility  posy  ETV
vector 5807  IntersectionExampleScenario.node[67].veinsmobility  posx  ETV
vector 5808  IntersectionExampleScenario.node[67].veinsmobility  posy  ETV
vector 5802  IntersectionExampleScenario.node[66].veinsmobility  speed  ETV
vector 5803  IntersectionExampleScenario.node[66].veinsmobility  acceleration  ETV
vector 5804  IntersectionExampleScenario.node[66].veinsmobility  co2emission  ETV
vector 5809  IntersectionExampleScenario.node[67].veinsmobility  speed  ETV
vector 5810  IntersectionExampleScenario.node[67].veinsmobility  acceleration  ETV
vector 5811  IntersectionExampleScenario.node[67].veinsmobility  co2emission  ETV
5713	1575241 5435 13023 16989 139.75 180.5 164 0.973 11.093806525473 469.08097934943 2248.9558490746
5712	1580676 5276 13023 16989 139.75 180.5 164 -3.2323989868164 2.5 34.606801986694 204.22644577988
5711	1585952 5375 13000 16989 139.5 180.5 165 5.6500000953674 14.875 2218.4890556335 30381.961043395
5710	1591327 5614 12977 16989 139.25 180.5 166 184.17810058594 734.1001739502 74751.934020996 38017442.897234
5709	1596941 5645 12977 16989 139.25 180.5 166 486.85000610352 486.85000610352 80817.101013184 39345806.121537
5720	1602586 5567 13073 17127 140.25 182 168 0.973 11.450879080643 518.69919879856 2614.8317259133
5719	1608153 5173 13073 17127 140.25 182 168 -4.5 2.5 37.492597579956 275.16028787216
5718	1613326 5458 13048 17127 140 182 169 5.6500000953674 15.375 2300.598534584 32281.675701822
5717	1618784 5745 13023 17127 139.75 182 170 160.43438720703 486.8791809082 66059.488494873 27867562.625738
5716	1624529 5772 13023 17127 139.75 182 170 237.32922363281 486.85000610352 74280.742492676 33444452.393303
vector 5814  IntersectionExampleScenario.node[68].veinsmobility  posx  ETV
vector 5815  IntersectionExampleScenario.node[68].veinsmobility  posy  ETV
vector 5816  IntersectionExampleScenario.node[68].veinsmobility  speed  ETV
vector 5817  IntersectionExampleScenario.node[68].veinsmobility  acceleration  ETV
vector 5818  IntersectionExampleScenario.node[68].veinsmobility  co2emission  ETV
vector 5821  IntersectionExampleScenario.node[69].veinsmobility  posx  ETV
vector 5822  IntersectionExampleScenario.node[69].veinsmobility  posy  ETV
vector 5823  IntersectionExampleScenario.node[69].veinsmobility  speed  ETV
vector 5824  IntersectionExampleScenario.node[69].veinsmobility  acceleration  ETV
vector 5825  IntersectionExampleScenario.node[69].veinsmobility  co2emission  ETV
vector 5828  IntersectionExampleScenario.node[70].veinsmobility  posx  ETV
vector 5829  IntersectionExampleScenario.node[70].veinsmobility  posy  ETV
vector 5830  IntersectionExampleScenario.node[70].veinsmobility  speed  ETV
vector 5831  IntersectionExampleScenario.node[70].veinsmobility  acceleration  ETV
vector 5832  IntersectionExampleScenario.node[70].veinsmobility  co2emission  ETV
vector 5835  IntersectionExampleScenario.node[71].veinsmobility  posx  ETV
vector 5836  IntersectionExampleScenario.node[71].veinsmobility  posy  ETV
vector 5837  IntersectionExampleScenario.node[71].veinsmobility  speed  ETV
vector 5838  IntersectionExampleScenario.node[71].veinsmobility  acceleration  ETV
vector 5839  IntersectionExampleScenario.node[71].veinsmobility  co2emission  ETV
5706	1631885 6567 12846 17892 137.75 190.5 212 0.973 11.450879080643 574.28345311784 2815.8951485374
5705	1638452 5945 12846 17892 137.75 190.5 212 -7.3439340591431 4 37.32285118103 468.21975753043
5704	1644397 6351 12823 17892 137.5 190.5 213 0 15.375 2201.1615531445 30669.924930393
5703	1650748 7265 12800 17892 137.25 190.5 214 483.14999389648 785.82187652588 118533.92119598 67658302.952345
5702	1658013 7273 12800 17892 137.25 190.5 214 483.14999389648 733.21885681152 111935.0922699 59632092.726984
5734	1665286 5799 13608 17997 145.5 191.75 186 0.973 12.099024792222 558.14822910067 3027.8285715328
5733	1671085 6143 13608 17997 145.5 191.75 186 -2.4779815673828 2.5 41.227170944214 303.21155073206
5732	1677228 6144 13583 17997 145.25 191.75 187 1.8733431100845 16.27499961853 2200.8729828596 30471.933975779
5731	1683372 6380 13558 17997 145 191.75 188 483.0876159668 785.82187652588 105869.79514313 61435807.649148
5730	1689752 6383 13558 17997 145 191.75 188 483.14999389648 731.49310302734 98781.457458496 52879921.184202
vector 5842  IntersectionExampleScenario.node[72].veinsmobility  posx  ETV
vector 5843  IntersectionExampleScenario.node[72].veinsmobility  posy  ETV
vector 5849  IntersectionExampleScenario.node[73].veinsmobility  posx  ETV
vector 5850  IntersectionExampleScenario.node[73].veinsmobility  posy  ETV
vector 5856  IntersectionExampleScenario.node[74].veinsmobility  posx  ETV
vector 5857  IntersectionExampleScenario.node[74].veinsmobility  posy  ETV
vector 5844  IntersectionExampleScenario.node[72].veinsmobility  speed  ETV
vector 5845  IntersectionExampleScenario.node[72].veinsmobility  acceleration  ETV
vector 5846  IntersectionExampleScenario.node[72].veinsmobility  co2emission  ETV
vector 5851  IntersectionExampleScenario.node[73].veinsmobility  speed  ETV
vector 5858  IntersectionExampleScenario.node[74].veinsmobility  speed  ETV
vector 5852  IntersectionExampleScenario.node[73].veinsmobility  acceleration  ETV
vector 5853  IntersectionExampleScenario.node[73].veinsmobility  co2emission  ETV
vector 5859  IntersectionExampleScenario.node[74].veinsmobility  acceleration  ETV
vector 5860  IntersectionExampleScenario.node[74].veinsmobility  co2emission  ETV
5762	1697323 5035 14642 18294 156 194.75 156 0.973 11.990504229548 538.91046477224 3392.2728439989
5761	1702358 4841 14642 18294 156 194.75 156 -3.1200218200684 2.5 39.869146347046 282.85875173705
5760	1707199 5083 14621 18294 155.75 194.75 157 5.6500000953674 16.125 2221.9362363815 32224.69327674
5759	1712282 5355 14600 18294 155.5 194.75 158 235.51739501953 785.82187652588 82632.362754822 47325058.926019
5758	1717637 5373 14600 18294 155.5 194.75 158 483.14999389648 483.14999389648 76337.699035645 36882558.823143
vector 5863  IntersectionExampleScenario.node[75].veinsmobility  posx  ETV
vector 5864  IntersectionExampleScenario.node[75].veinsmobility  posy  ETV
vector 5865  IntersectionExampleScenario.node[75].veinsmobility  speed  ETV
vector 5866  IntersectionExampleScenario.node[75].veinsmobility  acceleration  ETV
vector 5867  IntersectionExampleScenario.node[75].veinsmobility  co2emission  ETV
5727	1723406 7018 13127 18676 140.75 198.5 232 0.973 11.90022389248 619.64373651971 3055.8669916847
5726	1730424 6553 13127 18676 140.75 198.5 232 -31.413311004639 4 40.038900375366 1360.6775741343
5725	1736977 6591 13100 18676 140.5 198.5 233 0 16 2208.5045642853 32330.089796003
5724	1743568 7955 13073 18676 140.25 198.5 234 483.14999389648 731.74800109863 121150.46617126 63784820.000176
5723	1751523 7939 13073 18676 140.25 198.5 234 176.21716308594 486.85000610352 98117.867004395 43319469.152156
5776	1759462 5502 14847 18923 158.25 201 172 0.973 11.648172402475 531.52187656341 2935.45891458
5775	1764964 5400 14847 18923 158.25 201 172 -3.3486785888672 2.5 38.341367721558 289.41460313021
5774	1770364 5649 14822 18923 158 201 173 4.6995358467102 15.64999961853 2220.1256451607 30400.349350723
5773	1776013 5915 14797 18923 157.75 201 174 483.14999389648 483.14999389648 84068.098937988 40617501.488778
5772	1781928 5879 14797 18923 157.75 201 174 184.17810058594 733.58200073242 77828.57824707 38967199.301597
5741	1787807 6633 13787 18969 147.25 201.5 218 0.973 12.099024792222 610.56618637909 3237.4922039459
5740	1794440 6180 13787 18969 147.25 201.5 218 -6.9978852272034 4 41.227170944214 506.41936510725
5739	1800620 6365 13760 18969 147 201.5 219 0 16.27499961853 2181.6552077532 31831.78627165
5738	1806985 7475 13733 18969 146.75 201.5 220 486.85000610352 733.21513366699 114948.76333618 61062709.032555
5737	1814460 7470 13733 18969 146.75 201.5 220 486.75677490234 785.82187652588 121323.93796539 68858286.472108
vector 5870  IntersectionExampleScenario.node[76].veinsmobility  posx  ETV
vector 5871  IntersectionExampleScenario.node[76].veinsmobility  posy  ETV
vector 5872  IntersectionExampleScenario.node[76].veinsmobility  speed  ETV
vector 5873  IntersectionExampleScenario.node[76].veinsmobility  acceleration  ETV
vector 5874  IntersectionExampleScenario.node[76].veinsmobility  co2emission  ETV
5748	1822326 7430 13869 19288 148 204.75 228 0.973 11.370413682012 596.72769488547 2814.7755137476
5747	1829756 7339 13869 19288 148 204.75 228 -4.5 2.5 37.32285118103 414.13084374128
5746	1837095 7544 13842 19288 147.75 204.75 229 0 15.262582778931 2277.6194789894 31124.26250312
5745	1844639 7814 13814 19288 147.5 204.75 230 486.85000610352 733.77705383301 120332.74041748 64024968.062357
5744	1852453 7811 13814 19288 147.5 204.75 230 486.85000610352 808.82032012939 129232.31150055 74991417.5664
5755	1860264 7249 14062 19412 149.75 206 226 0.973 11.54047740176 612.77328277111 3013.1043407245
5754	1867513 7169 14062 19412 149.75 206 226 -4.5 2.5000009536743 38.680875778198 411.65092754282
5753	1874682 7555 14033 19412 149.5 206 227 0 15.566613197327 2340.9237098619 32062.511307307
5752	1882237 7752 14004 19412 149.25 206 228 486.85000610352 486.85000610352 111001.8013916 54041227.685002
5751	1889989 7717 14004 19412 149.25 206 228 235.95465087891 816.55704498291 121057.96803284 69152318.224373
vector 5877  IntersectionExampleScenario.node[77].veinsmobility  posx  ETV
vector 5878  IntersectionExampleScenario.node[77].veinsmobility  posy  ETV
vector 5879  IntersectionExampleScenario.node[77].veinsmobility  speed  ETV
vector 5880  IntersectionExampleScenario.node[77].veinsmobility  acceleration  ETV
vector 5881  IntersectionExampleScenario.node[77].veinsmobility  co2emission  ETV
5769	1898102 6536 14751 19740 157.25 209.5 210 0.973 11.200708441096 554.06174891308 2727.5143925264
5768	1904638 6641 14751 19740 157.25 209.5 210 -3.917632818222 2.5000009536743 35.795072555542 331.30486864397
5767	1911279 6883 14728 19740 157 209.5 211 0 15.02499961853 2210.0849576592 28337.417845042
5766	1918162 7207 14705 19740 156.75 209.5 212 236.04064941406 486.85000610352 94402.774383545 43144790.106832
5765	1925369 7196 14705 19740 156.75 209.5 212 483.12097167969 785.82187652588 119041.71695709 68742469.654938
vector 5884  IntersectionExampleScenario.node[78].veinsmobility  posx  ETV
vector 5885  IntersectionExampleScenario.node[78].veinsmobility  posy  ETV
vector 5886  IntersectionExampleScenario.node[78].veinsmobility  speed  ETV
vector 5887  IntersectionExampleScenario.node[78].veinsmobility  acceleration  ETV
vector 5888  IntersectionExampleScenario.node[78].veinsmobility  co2emission  ETV
5790	1932961 6409 15212 20087 161.75 212.75 205 0.973 11.450879080643 564.01389850491 2794.623464247
5789	1939370 5980 15212 20087 161.75 212.75 205 -9.2760667800903 4 36.643835067749 493.93958344813
5788	1945350 6231 15185 20087 161.5 212.75 206 0 15.375 2208.5863375664 30503.035344753
5787	1951581 7016 15158 20087 161.25 212.75 207 184.17810058594 486.85000610352 85678.855621338 37449511.569903
5786	1958597 7039 15158 20087 161.25 212.75 207 235.26031494141 486.85000610352 92042.827728271 42024372.215712
vector 5891  IntersectionExampleScenario.node[79].veinsmobility  posx  ETV
vector 5892  IntersectionExampleScenario.node[79].veinsmobility  posy  ETV
vector 5893  IntersectionExampleScenario.node[79].veinsmobility  speed  ETV
vector 5894  IntersectionExampleScenario.node[79].veinsmobility  acceleration  ETV
vector 5895  IntersectionExampleScenario.node[79].veinsmobility  co2emission  ETV
vector 5898  IntersectionExampleScenario.node[80].veinsmobility  posx  ETV
vector 5899  IntersectionExampleScenario.node[80].veinsmobility  posy  ETV
vector 5900  IntersectionExampleScenario.node[80].veinsmobility  speed  ETV
vector 5901  IntersectionExampleScenario.node[80].veinsmobility  acceleration  ETV
vector 5902  IntersectionExampleScenario.node[80].veinsmobility  co2emission  ETV
5811	1966428 5243 16699 20543 177.5 217 159 0.973 11.256529525886 476.21345650268 2502.0723840906
5810	1971671 5007 16699 20543 177.5 217 159 -3.7710456848145 2.5 35.964826583862 207.65910979492
5809	1976678 5212 16674 20543 177.25 217 160 5.6500000953674 15.103220939636 2214.5983047485 31167.942358654
5808	1981890 5436 16649 20543 177 217 161 184.17810058594 732.79713439941 72294.646179199 36715312.293883
5807	1987326 5472 16649 20543 177 217 161 486.85000610352 486.85000610352 78382.850982666 38160691.479322
vector 5905  IntersectionExampleScenario.node[81].veinsmobility  posx  ETV
vector 5906  IntersectionExampleScenario.node[81].veinsmobility  posy  ETV
vector 5907  IntersectionExampleScenario.node[81].veinsmobility  speed  ETV
vector 5908  IntersectionExampleScenario.node[81].veinsmobility  acceleration  ETV
vector 5909  IntersectionExampleScenario.node[81].veinsmobility  co2emission  ETV
vector 5912  IntersectionExampleScenario.node[82].veinsmobility  posx  ETV
vector 5913  IntersectionExampleScenario.node[82].veinsmobility  posy  ETV
vector 5914  IntersectionExampleScenario.node[82].veinsmobility  speed  ETV
vector 5915  IntersectionExampleScenario.node[82].veinsmobility  acceleration  ETV
vector 5916  IntersectionExampleScenario.node[82].veinsmobility  co2emission  ETV
5818	1993590 5182 17200 20992 182.75 221.75 157 0.973 11.648172402475 489.35808915824 2654.0603847771
5817	1998772 5050 17200 20992 182.75 221.75 157 -3.0638771057129 2.5 38.001859664917 230.67568079676
5816	2003822 5135 17175 20992 182.5 221.75 158 5.6500000953674 15.64999961853 2216.2036113739 31820.40968369
5815	2008957 5372 17150 20992 182.25 221.75 159 237.00006103516 785.82187652588 82868.926048279 47338367.963914
5814	2014329 5408 17150 20992 182.25 221.75 159 483.14999389648 483.14999389648 76820.849029541 37115992.739745
vector 5919  IntersectionExampleScenario.node[83].veinsmobility  posx  ETV
vector 5920  IntersectionExampleScenario.node[83].veinsmobility  posy  ETV
vector 5921  IntersectionExampleScenario.node[83].veinsmobility  speed  ETV
vector 5926  IntersectionExampleScenario.node[84].veinsmobility  posx  ETV
vector 5927  IntersectionExampleScenario.node[84].veinsmobility  posy  ETV
vector 5922  IntersectionExampleScenario.node[83].veinsmobility  acceleration  ETV
vector 5923  IntersectionExampleScenario.node[83].veinsmobility  co2emission  ETV
vector 5928  IntersectionExampleScenario.node[84].veinsmobility  speed  ETV
vector 5929  IntersectionExampleScenario.node[84].veinsmobility  acceleration  ETV
vector 5930  IntersectionExampleScenario.node[84].veinsmobility  co2emission  ETV
vector 5933  IntersectionExampleScenario.node[85].veinsmobility  posx  ETV
vector 5934  IntersectionExampleScenario.node[85].veinsmobility  posy  ETV
vector 5935  IntersectionExampleScenario.node[85].veinsmobility  speed  ETV
vector 5936  IntersectionExampleScenario.node[85].veinsmobility  acceleration  ETV
vector 5937  IntersectionExampleScenario.node[85].veinsmobility  co2emission  ETV
vector 5940  IntersectionExampleScenario.node[86].veinsmobility  posx  ETV
vector 5941  IntersectionExampleScenario.node[86].veinsmobility  posy  ETV
vector 5942  IntersectionExampleScenario.node[86].veinsmobility  speed  ETV
vector 5943  IntersectionExampleScenario.node[86].veinsmobility  acceleration  ETV
vector 5944  IntersectionExampleScenario.node[86].veinsmobility  co2emission  ETV
vector 5947  IntersectionExampleScenario.node[87].veinsmobility  posx  ETV
vector 5948  IntersectionExampleScenario.node[87].veinsmobility  posy  ETV
vector 5949  IntersectionExampleScenario.node[87].veinsmobility  speed  ETV
vector 5954  IntersectionExampleScenario.node[88].veinsmobility  posx  ETV
vector 5955  IntersectionExampleScenario.node[88].veinsmobility  posy  ETV
vector 5950  IntersectionExampleScenario.node[87].veinsmobility  acceleration  ETV
vector 5951  IntersectionExampleScenario.node[87].veinsmobility  co2emission  ETV
vector 5956  IntersectionExampleScenario.node[88].veinsmobility  speed  ETV
vector 5957  IntersectionExampleScenario.node[88].veinsmobility  acceleration  ETV
vector 5958  IntersectionExampleScenario.node[88].veinsmobility  co2emission  ETV
vector 5961  IntersectionExampleScenario.node[89].veinsmobility  posx  ETV
vector 5962  IntersectionExampleScenario.node[89].veinsmobility  posy  ETV
vector 5968  IntersectionExampleScenario.node[90].veinsmobility  posx  ETV
vector 5969  IntersectionExampleScenario.node[90].veinsmobility  posy  ETV
vector 5963  IntersectionExampleScenario.node[89].veinsmobility  speed  ETV
5797	2022494 6723 16560 21904 176 231 221 0.973 11.810082123732 593.67052021896 3060.9086110153
5796	2029217 6448 16560 21904 176 231 221 -8.7514572143555 4 38.850629806519 504.69504374512
5795	2035665 6425 16537 21904 175.75 231 222 0 15.875 2170.0120654106 30759.737903512
5794	2042090 7507 16514 21904 175.5 231 223 238.59930419922 483.14999389648 99738.937469482 45622821.104095
5793	2049597 7558 16514 21904 175.5 231 223 184.17810058594 483.36395263672 93228.15057373 40954876.398977
vector 5964  IntersectionExampleScenario.node[89].veinsmobility  acceleration  ETV
vector 5965  IntersectionExampleScenario.node[89].veinsmobility  co2emission  ETV
vector 5970  IntersectionExampleScenario.node[90].veinsmobility  speed  ETV
vector 5971  IntersectionExampleScenario.node[90].veinsmobility  acceleration  ETV
vector 5972  IntersectionExampleScenario.node[90].veinsmobility  co2emission  ETV
5783	2057566 8860 14901 22028 158.75 232 294 0.973 11.200708441096 689.10632154793 3084.8509311497
5782	2066426 8327 14901 22028 158.75 232 294 -24.919143676758 4 35.455564498901 1200.1502839439
5781	2074753 8742 14874 22028 158.5 232 295 0 15.02499961853 2298.917527318 29519.212544025
5780	2083495 10064 14847 22028 158.25 232 296 486.85000610352 486.85000610352 144107.60180664 70158786.819126
5779	2093559 10041 14847 22028 158.25 232 296 235.85095214844 806.11563110352 154306.42914581 85295555.405231
vector 5975  IntersectionExampleScenario.node[91].veinsmobility  posx  ETV
vector 5976  IntersectionExampleScenario.node[91].veinsmobility  posy  ETV
vector 5977  IntersectionExampleScenario.node[91].veinsmobility  speed  ETV
5839	2103829 5546 17803 22123 189.5 232.75 174 0.973 11.648172402475 525.42319196581 2835.0869068312
5838	2109375 5460 17803 22123 189.5 232.75 174 -2.129093170166 2.5 38.171613693237 276.69014867922
5837	2114835 5712 17780 22123 189.25 232.75 175 4.1307873725891 15.64999961853 2214.7199463844 30173.088853075
5836	2120547 5984 17757 22123 189 232.75 176 483.14999389648 483.14999389648 85034.398925781 41084369.321982
5835	2126531 5950 17757 22123 189 232.75 176 184.17810058594 732.36552429199 78668.747467041 39299412.504251
vector 5978  IntersectionExampleScenario.node[91].veinsmobility  acceleration  ETV
vector 5979  IntersectionExampleScenario.node[91].veinsmobility  co2emission  ETV
vector 5982  IntersectionExampleScenario.node[92].veinsmobility  posx  ETV
vector 5983  IntersectionExampleScenario.node[92].veinsmobility  posy  ETV
vector 5984  IntersectionExampleScenario.node[92].veinsmobility  speed  ETV
vector 5985  IntersectionExampleScenario.node[92].veinsmobility  acceleration  ETV
vector 5986  IntersectionExampleScenario.node[92].veinsmobility  co2emission  ETV
5804	2133044 7165 16674 22256 177.25 233.75 227 0.973 11.200708441096 582.16325003279 2772.7759038499
5803	2140209 7639 16674 22256 177.25 233.75 227 -3.7600870132446 2.5000002384186 36.813589096069 355.76928097287
5802	2147848 7717 16649 22256 177 233.75 228 0 15.368947982788 2203.3425378837 29047.580004662
5801	2155565 7771 16626 22256 176.75 233.75 229 237.33349609375 486.85000610352 102894.34085083 47336936.541285
5800	2163336 7768 16626 22256 176.75 233.75 229 483.14999389648 785.82187652588 126788.12055206 72185895.046938
vector 5989  IntersectionExampleScenario.node[93].veinsmobility  posx  ETV
vector 5990  IntersectionExampleScenario.node[93].veinsmobility  posy  ETV
vector 5996  IntersectionExampleScenario.node[94].veinsmobility  posx  ETV
vector 5997  IntersectionExampleScenario.node[94].veinsmobility  posy  ETV
vector 5991  IntersectionExampleScenario.node[93].veinsmobility  speed  ETV
vector 6003  IntersectionExampleScenario.node[95].veinsmobility  posx  ETV
vector 6004  IntersectionExampleScenario.node[95].veinsmobility  posy  ETV
vector 5992  IntersectionExampleScenario.node[93].veinsmobility  acceleration  ETV
vector 5993  IntersectionExampleScenario.node[93].veinsmobility  co2emission  ETV
vector 5998  IntersectionExampleScenario.node[94].veinsmobility  speed  ETV
vector 5999  IntersectionExampleScenario.node[94].veinsmobility  acceleration  ETV
vector 6000  IntersectionExampleScenario.node[94].veinsmobility  co2emission  ETV
vector 6005  IntersectionExampleScenario.node[95].veinsmobility  speed  ETV
5846	2172125 5564 18068 22499 192.5 235.5 173 0.973 11.36141391502 558.39745296003 3151.5415343096
5845	2177689 5292 18068 22499 192.5 235.5 173 -4.8914947509766 2.5 37.32285118103 383.23876173714
5844	2182981 5599 18041 22499 192.25 235.5 174 5.6500000953674 15.25 2186.8336858749 29181.307764912
5843	2188580 5940 18018 22499 192 235.5 175 486.85000610352 733.86238098145 93562.33807373 50996312.817303
5842	2194520 5941 18018 22499 192 235.5 175 486.78231811523 785.82187652588 99908.290672302 58806123.253332
vector 6010  IntersectionExampleScenario.node[96].veinsmobility  posx  ETV
vector 6011  IntersectionExampleScenario.node[96].veinsmobility  posy  ETV
vector 6006  IntersectionExampleScenario.node[95].veinsmobility  acceleration  ETV
vector 6007  IntersectionExampleScenario.node[95].veinsmobility  co2emission  ETV
vector 6012  IntersectionExampleScenario.node[96].veinsmobility  speed  ETV
vector 6013  IntersectionExampleScenario.node[96].veinsmobility  acceleration  ETV
vector 6014  IntersectionExampleScenario.node[96].veinsmobility  co2emission  ETV
vector 6017  IntersectionExampleScenario.node[97].veinsmobility  posx  ETV
vector 6018  IntersectionExampleScenario.node[97].veinsmobility  posy  ETV
vector 6019  IntersectionExampleScenario.node[97].veinsmobility  speed  ETV
5860	2201253 5716 18094 22704 192.75 236.75 177 0.97223939240464 11.648172402475 573.36164971907 3234.0093579495
5859	2206969 5186 18094 22704 192.75 236.75 177 -4.5 2.5 38.680875778198 409.98776619622
5858	2212155 5734 18068 22704 192.5 236.75 178 5.3713073730469 15.64999961853 2232.3471703529 30174.277011868
5857	2217889 6077 18041 22704 192.25 236.75 179 235.60437011719 483.14999389648 78255.167022705 35186361.587345
5856	2223966 6059 18041 22704 192.25 236.75 179 172.9296875 483.18734741211 70745.516845703 29883194.238179
vector 6020  IntersectionExampleScenario.node[97].veinsmobility  acceleration  ETV
vector 6021  IntersectionExampleScenario.node[97].veinsmobility  co2emission  ETV
5853	2230192 5880 18094 22790 192.75 237.25 179 0.973 11.093806525473 533.73529850552 2693.0893911465
5852	2236072 5734 18094 22790 192.75 237.25 179 -4.5 2.5 35.625318527222 306.00771939735
5851	2241806 5906 18068 22790 192.5 237.25 180 5.6500000953674 14.875 2317.746761322 30870.230695877
5850	2247712 6155 18041 22790 192.25 237.25 181 486.85000610352 486.85000610352 88119.851104736 42901150.048182
5849	2253867 6126 18041 22790 192.25 237.25 181 235.87963867188 810.23281097412 97026.717216492 57019349.0846
vector 6024  IntersectionExampleScenario.node[98].veinsmobility  posx  ETV
vector 6025  IntersectionExampleScenario.node[98].veinsmobility  posy  ETV
vector 6026  IntersectionExampleScenario.node[98].veinsmobility  speed  ETV
vector 6027  IntersectionExampleScenario.node[98].veinsmobility  acceleration  ETV
vector 6028  IntersectionExampleScenario.node[98].veinsmobility  co2emission  ETV
5867	2260389 5566 18423 23135 196 239.25 174 0.973 11.36141391502 556.22042285208 2971.6582152373
5866	2265955 5415 18423 23135 196 239.25 174 -4.5 2.5 39.699392318726 307.33490990347
5865	2271370 5633 18396 23135 195.75 239.25 175 5.6500000953674 15.620583534241 2284.6726102829 31468.377844525
5864	2277003 5979 18369 23135 195.5 239.25 176 486.85000610352 733.78590393066 93751.635574341 50891944.19353
5863	2282982 5971 18369 23135 195.5 239.25 176 486.85000610352 810.52456665039 102251.56664276 61534539.812614
5825	2288953 7173 17343 23854 184.25 243.5 238 0.973 11.90022389248 637.97785684245 3137.8239384193
5824	2296126 6342 17343 23854 184.25 243.5 238 -32.327171325684 4 41.227170944214 1447.695484938
5823	2302468 6697 17318 23854 184 243.5 239 0 16.021635055542 2208.1758337021 32957.412294652
5822	2309165 8132 17293 23854 183.75 243.5 240 184.17810058594 731.40208435059 109361.87164307 53856154.502946
5821	2317297 8160 17293 23854 183.75 243.5 240 486.85000610352 486.85000610352 116844.00146484 56885502.826318
5832	2325457 7271 17736 24305 188.75 246.25 231 0.973 11.200708441096 575.0489148464 2670.6110106461
5831	2332728 7410 17736 24305 188.75 246.25 231 -3.7553844451904 2.5000002384186 35.964826583862 336.23810987655
5830	2340138 7676 17715 24305 188.5 246.25 232 0 15.02499961853 2212.1167403795 28807.342000141
5829	2347814 7885 17694 24305 188.25 246.25 233 184.17810058594 486.86709594727 96990.269012451 42370454.658512
5828	2355699 7914 17694 24305 188.25 246.25 233 235.35113525391 486.85000610352 104602.91717529 48107132.378949
vector 6031  IntersectionExampleScenario.node[99].veinsmobility  posx  ETV
[...]
10490	25693359 8511 212885 222451 1735.5 1792.75 230 483.14999389648 483.14999389648 111124.49859619 53689800.8185
10529	25701870 6893 214297 222877 1744.25 1795.25 205 0.97223939240464 11.810082123732 567.44732629499 3046.6168938597
10528	25708763 7062 214297 222877 1744.25 1795.25 205 -2.1364250183105 2.5 38.680875778198 332.80510635723
10527	25715825 7294 214256 222877 1744 1795.25 206 1.584708571434 15.875 2192.3455173969 28289.319272958
10526	25723119 7644 214215 222877 1743.75 1795.25 207 486.85000610352 785.82187652588 116612.4164505 67520863.349177
10525	25730763 7657 214215 222877 1743.75 1795.25 207 235.06329345703 483.14999389648 91760.365600586 41708425.026574
vector 10742  IntersectionExampleScenario.node[772].veinsmobility  posx  ETV
vector 10743  IntersectionExampleScenario.node[772].veinsmobility  posy  ETV
vector 10744  IntersectionExampleScenario.node[772].veinsmobility  speed  ETV
vector 10745  IntersectionExampleScenario.node[772].veinsmobility  acceleration  ETV
vector 10746  IntersectionExampleScenario.node[772].veinsmobility  co2emission  ETV
10564	25738826 6356 215432 223118 1750.75 1796.75 185 0.973 11.648172402475 532.63761948274 2855.7938335847
10563	25745182 6348 215432 223118 1750.75 1796.75 185 -4.2939281463623 2.5000009536743 38.171613693237 337.7626717967
10562	25751530 6672 215386 223118 1750.5 1796.75 186 2.0685451030731 15.64999961853 2210.7282643318 29462.449211457
10561	25758202 6904 215339 223118 1750.25 1796.75 187 238.21148681641 785.82187652588 97969.041404724 55459458.727621
10560	25765106 6921 215339 223118 1750.25 1796.75 187 483.14999389648 483.14999389648 90349.048858643 43652142.404606
vector 10749  IntersectionExampleScenario.node[773].veinsmobility  posx  ETV
vector 10750  IntersectionExampleScenario.node[773].veinsmobility  posy  ETV
vector 10751  IntersectionExampleScenario.node[773].veinsmobility  speed  ETV
vector 10752  IntersectionExampleScenario.node[773].veinsmobility  acceleration  ETV
vector 10753  IntersectionExampleScenario.node[773].veinsmobility  co2emission  ETV
10571	25772433 6492 215570 223413 1751.5 1798.5 189 0.94600815583079 12.353032912318 588.9091722884 3376.1545607457
10570	25778925 6074 215570 223413 1751.5 1798.5 189 -8.3548908233643 4 41.566686630249 523.56764569232
10569	25784999 6322 215524 223413 1751.25 1798.5 190 0 16.625 2211.5889468193 32771.553878503
10568	25791321 7066 215477 223413 1751 1798.5 191 483.14999389648 483.14999389648 92281.648834229 44585878.071015
10567	25798387 7029 215477 223413 1751 1798.5 191 184.17810058594 733.03509521484 86375.317703247 43067507.690854
10515	25805416 7671 213770 223539 1741 1799.25 234 0.973 11.810082123732 615.48931348269 3298.8438335947
10514	25813087 7221 213770 223539 1741 1799.25 234 -15.648612976074 4 38.511121749878 700.50637330884
10513	25820308 7377 213729 223539 1740.75 1799.25 235 0 15.875 2181.007183075 30875.971025184
10512	25827685 8659 213688 223539 1740.5 1799.25 236 486.85000610352 734.25172424316 123124.79515076 65302790.75153
10511	25836344 8727 213688 223539 1740.5 1799.25 236 486.63604736328 785.82187652588 129627.76605988 73223419.582891
vector 10756  IntersectionExampleScenario.node[774].veinsmobility  posx  ETV
vector 10757  IntersectionExampleScenario.node[774].veinsmobility  posy  ETV
vector 10758  IntersectionExampleScenario.node[774].veinsmobility  speed  ETV
10522	25845306 8140 214013 223665 1742.5 1800 231 0.973 11.450879080643 598.08373779861 2838.088417902
10521	25853446 7929 214013 223665 1742.5 1800 231 -4.5 2.5 37.15309715271 429.06571677089
10520	25861375 8180 213972 223665 1742.25 1800 232 0 15.375 2236.0334621212 30611.995124178
10519	25869555 8604 213931 223665 1742 1800 233 249.64007568359 486.85000610352 105717.12213135 48931033.837129
10518	25878159 8598 213931 223665 1742 1800 233 483.13555908203 806.11563110352 130349.01337433 75284664.041064
10543	25886757 6775 214683 223665 1746.5 1800 215 0.94600815583079 12.26218747632 551.46400415397 3185.973558162
10542	25893532 6292 214683 223665 1746.5 1800 215 -27.19454574585 4 42.59792137146 1132.2990284844
10541	25899824 6440 214639 223665 1746.25 1800 216 0 16.5 1522.1111516953 19498.238990568
10540	25906264 7994 214594 223665 1746 1800 217 162.90466308594 483.36395263672 87480.976806641 37468650.106868
10539	25914258 7958 214594 223665 1746 1800 217 486.85000610352 547.16665649414 106245.10113525 52039290.614272
10550	25922216 6907 215114 223665 1749 1800 205 0.973 11.810082123732 575.77695202285 2995.4430445972
10549	25929123 7191 215114 223665 1749 1800 205 -3.8653354644775 2.5 41.396924972534 367.08911108109
10548	25936314 7292 215069 223665 1748.75 1800 206 0 16.042598724365 2031.075236313 27175.832237552
10547	25943606 7653 215026 223665 1748.5 1800 207 486.85000610352 694.56980895996 106388.03596497 55297270.06727
10546	25951259 7641 215026 223665 1748.5 1800 207 486.67752075195 785.82187652588 116443.28577423 67290514.167407
10557	25958900 7108 215159 223665 1749.25 1800 204 0.973 11.810082123732 574.33133139474 2995.8905131594
10556	25966008 7109 215159 223665 1749.25 1800 204 -4.5 2.5 39.86932182312 471.68016223278
10555	25973117 7252 215114 223665 1749 1800 205 0 15.875 1963.6899622157 25332.072100483
10554	25980369 7603 215069 223665 1748.75 1800 206 486.85000610352 653.34680175781 104035.45913696 52882731.25008
10553	25987972 7602 215069 223665 1748.75 1800 206 486.85000610352 810.23281097412 118909.80369568 70784971.20738
10578	25995574 6515 215881 223665 1753.25 1800 188 0.973 11.200708441096 415.72851793749 1753.8967522993
10577	26002089 6603 215881 223665 1753.25 1800 188 -4.5 2.5 15.89999961853 369.19544753836
10576	26008692 6670 215837 223665 1753 1800 189 0 15.02499961853 1260.832433532 15946.956670332
10575	26015362 6991 215792 223665 1752.75 1800 190 184.17810058594 483.14999389648 75977.798980713 32074849.075874
10574	26022353 7028 215792 223665 1752.75 1800 190 486.85000610352 504.54760742188 92597.835144043 45129277.641974
10585	26029381 5290 216456 223665 1756.75 1800 174 0.973 11.648172402475 349.45976877608 1594.8329724224
10584	26034671 5305 216456 223665 1756.75 1800 174 -6.787691116333 2.5 -22.60000038147 305.49694590988
10583	26039976 5422 216416 223665 1756.5 1800 175 0 15.722665786743 1148.0700321198 14684.611419642
10582	26045398 6503 216375 223665 1756.25 1800 176 498.39999389648 785.82187652588 100975.68914032 59557090.540965
10581	26051901 6512 216375 223665 1756.25 1800 176 483.14999389648 483.14999389648 85034.398925781 41084369.321982
10592	26058413 5296 216992 223665 1760.25 1800 160 0.973 10.756497587458 317.62010400607 1279.8968868146
10591	26063709 5671 216992 223665 1760.25 1800 160 -4.5 2.5 -22.60000038147 238.63817787923
10590	26069380 5601 216955 223665 1760 1800 161 0 14.39999961853 1160.6287850663 14865.181879269
10589	26074981 5971 216918 223665 1759.75 1800 162 504.79971313477 795.46562957764 95611.503311157 58057209.418674
10588	26080952 5993 216918 223665 1759.75 1800 162 483.14999389648 483.14999389648 78270.29901123 37816294.489552
10599	26086945 5438 217218 223665 1761.75 1800 154 0.97223939240464 11.648172402475 496.30173392944 2869.2728077639
10598	26092383 5318 217218 223665 1761.75 1800 154 -2.1208915710449 2.5 38.680875778198 246.31352813734
10597	26097701 5506 217179 223665 1761.5 1800 155 5.6500000953674 15.64999961853 2100.7727880478 29387.987451855
10596	26103207 5772 217140 223665 1761.25 1800 156 483.14999389648 483.14999389648 75371.399047852 36415690.989939
10595	26108979 5746 217140 223665 1761.25 1800 156 184.17810058594 704.31195068359 67697.774459839 32917203.551523
10606	26114725 5136 217378 223665 1762.75 1800 150 0.973 11.810082123732 477.68522131414 2852.2343548635
10605	26119861 5208 217378 223665 1762.75 1800 150 -2.9072189331055 2.5 39.871587753296 283.88242051571
10604	26125069 5271 217337 223665 1762.5 1800 151 5.6464138031006 15.875 1720.473528862 21781.005158301
10603	26130340 5618 217296 223665 1762.25 1800 152 486.85000610352 617.22300720215 76345.9400177 38510239.877361
10602	26135958 5606 217296 223665 1762.25 1800 152 486.85000610352 785.82187652588 89068.889961243 53697380.997554
10613	26141564 4779 217897 223665 1766 1800 137 0.973 11.990504229548 437.60374510272 2658.1241748652
10612	26146343 4823 217897 223665 1766 1800 137 -4.5 2.5 40.381113052368 225.21694036491
10611	26151166 4869 217858 223665 1765.75 1800 138 5.6500000953674 16.125 1770.0273485184 23926.330511294
10610	26156035 5142 217819 223665 1765.5 1800 139 486.85000610352 486.85000610352 67672.150848389 32946187.053576
10609	26161177 5127 217819 223665 1765.5 1800 139 360.26208496094 797.07032012939 80936.262695312 49306716.519155
10620	26166304 3973 218395 223665 1769.25 1800 124 0.973 11.649587618668 313.41538559831 1525.917853413
10619	26170277 4055 218395 223665 1769.25 1800 124 -25.111598968506 2.5 -22.60000038147 877.27998551645
10618	26174332 4219 218356 223665 1769 1800 125 0 16.361589431763 1212.4729862213 15987.263926818
10617	26178551 4661 218317 223665 1768.75 1800 126 486.85000610352 486.85000610352 61343.100769043 29864888.983817
10616	26183212 4643 218317 223665 1768.75 1800 126 498.39999389648 802.69454193115 78414.055541992 50272807.109035
10627	26187855 3941 218552 223665 1770.25 1800 120 0.973 11.648172402475 313.50357731878 1598.6556951276
10626	26191796 4232 218552 223665 1770.25 1800 120 -4.5 2.5000009536743 5.3999996185303 270.11812380936
10625	26196028 4399 218513 223665 1770 1800 121 2.6169011592865 15.64999961853 1178.6278176308 14145.075344593
10624	26200427 4482 218473 223665 1769.75 1800 122 184.17810058594 476.23931884766 43647.682525635 16706557.938457
10623	26204909 4513 218473 223665 1769.75 1800 122 486.85000610352 487.69458007812 59396.966308594 28918030.388029
10634	26209422 4163 218636 223665 1770.75 1800 118 0.973 11.648172402475 426.98135948446 2698.5367685566
10633	26213585 4335 218636 223665 1770.75 1800 118 -3.1688537597656 2.5 39.702169418335 246.33961646996
10632	26217920 4340 218593 223665 1770.5 1800 119 5.6500000953674 15.798007965088 1625.87266922 23134.246297938
10631	26222260 4434 218552 223665 1770.25 1800 120 483.14999389648 587.69760131836 59524.297119141 29611502.708866
10630	26226694 4407 218552 223665 1770.25 1800 120 184.17810058594 486.85000610352 44451.296447754 17839860.702851
10641	26231101 3984 218679 223665 1771 1800 117 0.973 11.200708441096 365.74270736246 2120.6689394164
10640	26235085 4096 218679 223665 1771 1800 117 -1.3956031799316 2.5 38.513090133667 156.49080789517
10639	26239181 4157 218636 223665 1770.75 1800 118 5.6500000953674 15.468792915344 1531.3457365036 20445.072678331
10638	26243338 4402 218593 223665 1770.5 1800 119 486.85000610352 486.85000610352 57935.150726318 28205728.484716
10637	26247740 4392 218593 223665 1770.5 1800 119 389.77270507812 767.63153076172 69414.299758911 41967801.606315
10648	26252132 3341 219345 223665 1775 1800 101 0.973 12.099024792222 277.9856267884 1572.0688580902
10647	26255473 3412 219345 223665 1775 1800 101 -4.5 2.5 -22.60000038147 340.14258847692
10646	26258885 3559 219300 223665 1774.75 1800 102 0 16.27499961853 1157.9850867391 16886.593525668
10645	26262444 3810 219257 223665 1774.5 1800 103 486.85000610352 486.85000610352 50145.550628662 24413361.629628
10644	26266254 3799 219257 223665 1774.5 1800 103 504.72341918945 794.7712097168 64675.870330811 41674686.895163
10655	26270053 3248 219345 223665 1775 1800 101 0.973 11.648172402475 261.63605641207 1410.4728953465
10654	26273301 3688 219345 223665 1775 1800 101 -2.1943817138672 2.5 -14.704299449921 176.89819937027
10653	26276989 3753 219300 223665 1774.75 1800 102 1.9739252328873 15.64999961853 1075.9660397768 13789.14053905
10652	26280742 3800 219257 223665 1774.5 1800 103 517.31982421875 785.82187652588 64905.870201111 41750408.95205
10651	26284542 3810 219257 223665 1774.5 1800 103 483.14999389648 483.14999389648 49764.449371338 24043693.410024
10662	26288352 3346 219390 223665 1775.25 1800 100 0.973 11.648172402475 283.93901766768 1561.4922400515
10661	26291698 3651 219390 223665 1775.25 1800 100 -4.1971054077148 2.5 8.1269245147705 231.22142404005
10660	26295349 3717 219345 223665 1775 1800 101 4.8100986480713 15.64999961853 1110.798204422 13860.063184031
10659	26299066 3747 219300 223665 1774.75 1800 102 184.17810058594 459.76034545898 34320.387756348 12354176.030678
10658	26302813 3773 219300 223665 1774.75 1800 102 486.85000610352 486.85000610352 49658.700622559 24176338.701185
10669	26306586 3279 219619 223665 1776.5 1800 95 0.973 11.648172402475 281.90813084397 1512.174879492
10668	26309865 3353 219619 223665 1776.5 1800 95 -4.5 2.5 10.032293319702 220.17091776989
10667	26313218 3530 219572 223665 1776.25 1800 96 5.6500000953674 15.720633506775 1135.5032310486 14732.130220883
10666	26316748 3561 219525 223665 1776 1800 97 162.90466308594 444.04272460938 30427.378479004 10355389.70655
10665	26320309 3587 219525 223665 1776 1800 97 486.85000610352 486.85000610352 47224.450592041 22991224.05897
10676	26323896 2482 220578 223665 1782 1800 73 0.973 10.454805481409 223.90191873049 1232.4426066293
10675	26326378 2681 220578 223665 1782 1800 73 -2.1139793395996 2.5 23.469732284546 110.45522613652
10674	26329059 2730 220535 223665 1781.75 1800 74 5.6500000953674 15.505515098572 938.08753299713 12442.253527802
10673	26331789 2765 220492 223665 1781.5 1800 75 178.94610595703 409.90084838867 21340.105865479 6472504.8193158
10672	26334554 2774 220492 223665 1781.5 1800 75 486.85000610352 486.85000610352 36513.750457764 17776719.633224
10683	26337328 2284 220710 223665 1782.75 1800 70 0.973 12.099024792222 218.06144489839 1444.7850202145
10682	26339612 2458 220710 223665 1782.75 1800 70 -2.9569892883301 2.5 13.606824874878 139.57484258642
10681	26342070 2610 220666 223665 1782.5 1800 71 5.6500000953674 16.27499961853 889.22605895996 11695.357057126
10680	26344680 2652 220621 223665 1782.25 1800 72 208.56365966797 428.36727905273 22906.361999512 7647656.8827156
10679	26347332 2664 220621 223665 1782.25 1800 72 486.85000610352 486.85000610352 35053.200439453 17065650.847895
10690	26349996 2335 220924 223665 1784 1800 65 0.973 11.879888808244 233.53400401922 1435.4027524951
10689	26352331 2322 220924 223665 1784 1800 65 -4.5 2.5 25.276178359985 142.65356043355
10688	26354653 2433 220881 223665 1783.75 1800 66 5.6500000953674 16.344518661499 950.26814651489 14211.676447172
10687	26357086 2473 220838 223665 1783.5 1800 67 162.45074462891 395.99655151367 18005.583343506 5200382.892847
10686	26359559 2478 220838 223665 1783.5 1800 67 486.85000610352 486.85000610352 32618.950408936 15880536.205681
10697	26362037 2192 221013 223665 1784.5 1800 63 0.973 12.099024792222 228.45950013788 1495.6763972335
10696	26364229 2217 221013 223665 1784.5 1800 63 -2.1891021728516 2.5 18.39503288269 149.63845105371
10695	26366446 2354 220969 223665 1784.25 1800 64 5.6500000953674 16.27499961853 886.46339321136 12805.167535643
10694	26368800 2403 220924 223665 1784 1800 65 486.85000610352 486.85000610352 31645.250396729 15406490.348795
10693	26371203 2395 220924 223665 1784 1800 65 567.57901000977 785.82187652588 44456.078514099 30721684.212869
10704	26373598 1722 221675 223665 1788.5 1800 47 0.973 10.943693238759 197.61210872327 1106.5602761544
10703	26375320 1609 221675 223665 1788.5 1800 47 -1.2577800750732 2.5 40.005006790161 84.228571375952
10702	26376929 1773 221632 223665 1788.25 1800 48 5.3355550765991 15.664752006531 599.76851320267 8035.617957309
10701	26378702 1811 221589 223665 1788 1800 49 486.85000610352 486.85000610352 23855.650299072 11614123.493707
10700	26380513 1808 221589 223665 1788 1800 49 647.25643920898 792.02188110352 35845.026008606 26321238.785346
10711	26382321 1721 221675 223665 1788.5 1800 47 0.973 11.200708441096 183.44366609344 1171.602982913
10710	26384042 1672 221675 223665 1788.5 1800 47 -0.38379669189453 2.5 35.567758560181 94.126447646402
10709	26385714 1763 221632 223665 1788.25 1800 48 5.6500000953674 15.02499961853 634.82624912262 8729.0978702806
10708	26387477 1811 221589 223665 1788 1800 49 483.14999389648 483.14999389648 23674.349700928 11438261.913506
10707	26389288 1786 221589 223665 1788 1800 49 184.17810058594 338.03161621094 12379.715332031 3242260.055413
10718	26391074 1656 221764 223665 1789 1800 45 1.261860836597 10.85480935734 173.12884995084 1002.4858949628
10717	26392730 1616 221764 223665 1789 1800 45 -0.23701095581055 2.5 34.599435806274 82.537177416572
10716	26394346 1692 221720 223665 1788.75 1800 46 5.6500000953674 14.538708686829 584.47407150269 7708.1702804272
10715	26396038 1738 221675 223665 1788.5 1800 47 486.85000610352 486.85000610352 22881.950286865 11140077.636821
10714	26397776 1718 221675 223665 1788.5 1800 47 621.107421875 762.66562652588 32904.393875122 23128295.833658
10725	26399494 1500 221940 223665 1790 1800 41 0.973 11.648172402475 182.84536699522 1286.3627029547
10724	26400994 1420 221940 223665 1790 1800 41 -0.41465759277344 2.5 38.342607498169 100.393001657
10723	26402414 1540 221895 223665 1789.75 1800 42 5.6500000953674 15.64999961853 563.17653942108 7928.5444749105
10722	26403954 1587 221850 223665 1789.5 1800 43 650.14297485352 785.82187652588 31254.68082428 22796597.724411
10721	26405541 1590 221850 223665 1789.5 1800 43 483.14999389648 483.14999389648 20775.449737549 10037658.413893
10732	26407131 1436 222034 223665 1790.5 1800 39 1.3161810463129 11.519712662168 176.37486774606 1214.1404827583
10731	26408567 1351 222034 223665 1790.5 1800 39 -0.2357063293457 2.5 38.344350814819 94.622222109178
10730	26409918 1474 221987 223665 1790.25 1800 40 5.6500000953674 15.471047401428 515.32752799988 7019.0008739253
10729	26411392 1511 221940 223665 1790 1800 41 685.82559204102 809.56562805176 31034.311195374 23552746.260992
10728	26412903 1515 221940 223665 1790 1800 41 483.14999389648 483.14999389648 19809.149749756 9570790.5806891
10739	26414418 1216 222313 223665 1792 1800 33 2.0354592589811 11.200708441096 176.78999262353 1220.5574776229
10738	26415634 1073 222313 223665 1792 1800 33 -0.058303833007812 2.5 41.30096244812 94.877346808124
10737	26416707 1247 222266 223665 1791.75 1800 34 5.6500000953674 16.015098571777 447.14120388031 6254.2421688528
10736	26417954 1294 222219 223665 1791.5 1800 35 486.85000610352 486.85000610352 17039.750213623 8295802.4955048
10735	26419248 1288 222219 223665 1791.5 1800 35 694.90084838867 801.34928894043 26487.121147156 20084213.966551
10746	26420536 514 223118 223665 1796.75 1800 14 5.2162187258585 10.756497587458 111.40165623227 927.71781547567
10745	26421050 361 223118 223665 1796.75 1800 14 2.4999980926514 2.5 34.999998092651 87.49999046326
10744	26421411 546 223077 223665 1796.5 1800 15 5.6500000953674 14.39999961853 150.3749961853 1616.8842854023
10743	26421957 592 223036 223665 1796.25 1800 16 752.92188262939 785.82187652588 12361.947006226 9552865.7013552
10742	26422549 592 223036 223665 1796.25 1800 16 483.14999389648 483.14999389648 7730.3999023438 3734942.6656348
10753	26423141 329 223327 223665 1798 1800 9 5.2162187258585 8.5795037135332 62.00095089838 437.72442123158
10752	26423470 235 223327 223665 1798 1800 9 2.4999980926514 2.5 22.499998092651 56.24999046326
10751	26423705 366 223284 223665 1797.75 1800 10 5.6500000953674 11.27499961853 84.624998092651 748.36558556557
10750	26424071 394 223241 223665 1797.5 1800 11 184.17810058594 201.8125 2104.7561645508 403103.53486123
10749	26424465 406 223241 223665 1797.5 1800 11 486.85000610352 486.85000610352 5355.3500671387 2607252.2128729
10758	26424871 35 223665 223665 1800 1800 1 5.6500000953674 5.6500000953674 5.6500000953674 31.922501077652
10757	26424906 73 223621 223665 1799.75 1800 2 167.29217529297 167.29217529297 334.58435058594 55973.343828507
10756	26424979 73 223621 223665 1799.75 1800 2 486.85000610352 486.85000610352 973.70001220703 474045.85688599
5334	26425052 611 0 223664 0 1800 31 0 36 682 16220
5335	26425663 629 0 223664 0 1800 31 0 253 3921 676677
