version 2
run nodebug-35-20200606-13:29:33-21956
attr configname nodebug
attr datetime 20200606-13:29:33
attr experiment nodebug
attr inifile omnetpp.ini
attr iterationvars ""
attr iterationvars2 $repetition=35
attr measurement ""
attr network "\"org.car2x.veins.modules.application.ExtTraCIScenarioManagerLaunchd.IntersectionExampleScenario\""
attr processid 21956
attr repetition 35
attr replication #35
attr resultdir results
attr runnumber 35
attr seedset 35
param **.coreDebug false
param **.debug false
param *.**.nic.mac1609_4.bitrate 18Mbps
param *.**.nic.mac1609_4.txPower 20mW
param *.**.nic.mac1609_4.useServiceChannel false
param *.**.nic.phy80211p.analogueModels "xmldoc(\"config.xml\")"
param *.**.nic.phy80211p.decider "xmldoc(\"config.xml\")"
param *.**.nic.phy80211p.sensitivity -89dBm
param *.**.nic.phy80211p.thermalNoise -110dBm
param *.**.nic.phy80211p.usePropagationDelay true
param *.**.nic.phy80211p.useThermalNoise true
param *.annotations.draw false
param *.connectionManager.alpha 2.0
param *.connectionManager.carrierFrequency "5.890e9 Hz"
param *.connectionManager.pMax 20mW
param *.connectionManager.sat -89dBm
param *.connectionManager.sendDirect true
param *.manager.autoShutdown true
param *.manager.host "\"localhost\""
param *.manager.launchConfig "xmldoc(\"paramics.launchd.xml\")"
param *.manager.margin 25
param *.manager.moduleDisplayString "\"\""
param *.manager.moduleName "\"node\""
param *.manager.moduleType "\"org.car2x.veins.nodes.Car\""
param *.manager.port 9999
param *.manager.updateInterval 250ms
param *.node[*0].veinsmobility.accidentCount 0
param *.node[*0].veinsmobility.accidentDuration 30s
param *.node[*0].veinsmobility.accidentStart 75s
param *.node[*].appl.LiderSelectZoneRadio 55.0
param *.node[*].appl.ShareDataZoneRadio 110.0
param *.node[*].appl.TiempoSemaforo 30.0
param *.node[*].appl.beaconInterval 1s
param *.node[*].appl.beaconPriority 3
param *.node[*].appl.dataOnSch false
param *.node[*].appl.dataPriority 2
param *.node[*].appl.debug false
param *.node[*].appl.headerLength "256 bit"
param *.node[*].appl.maxOffset 0.005s
param *.node[*].appl.sendBeacons false
param *.node[*].appl.sendData true
param *.node[*].applType "\"Dummy\""
param *.node[*].mobilityType "\"TraCIMobility\""
param *.node[*].mobilityType.debug true
param *.node[*].veinsmobility.x 0
param *.node[*].veinsmobility.y 0
param *.node[*].veinsmobility.z 1.895
param *.node[*].veinsmobilityType "\"org.car2x.veins.modules.mobility.traci.TraCIMobility\""
param *.node[*].veinsmobilityType.debug true
param *.playgroundSizeX 8500m
param *.playgroundSizeY 8500m
param *.playgroundSizeZ 50m
param *.world.use2D false
param *.world.useTorus false

scalar IntersectionExampleScenario.node[0].appl 	VehicleRemoved 	0
scalar IntersectionExampleScenario.node[0].appl 	ArrivedAtDest 	1
scalar IntersectionExampleScenario.node[0].appl 	IntersectionEnterTime 	1.25
scalar IntersectionExampleScenario.node[0].appl 	IntersectionExitTime 	24.784678069846
scalar IntersectionExampleScenario.node[0].appl 	NumberOfCollisions 	0
scalar IntersectionExampleScenario.node[0].nic.phy80211p 	busyTime 	0
scalar IntersectionExampleScenario.node[0].nic.mac1609_4 	ReceivedUnicastPackets 	0
scalar IntersectionExampleScenario.node[0].nic.mac1609_4 	ReceivedBroadcasts 	0
scalar IntersectionExampleScenario.node[0].nic.mac1609_4 	SentPackets 	0
scalar IntersectionExampleScenario.node[0].nic.mac1609_4 	SNIRLostPackets 	0
scalar IntersectionExampleScenario.node[0].nic.mac1609_4 	RXTXLostPackets 	0
scalar IntersectionExampleScenario.node[0].nic.mac1609_4 	TotalLostPackets 	0
scalar IntersectionExampleScenario.node[0].nic.mac1609_4 	DroppedPacketsInMac 	0
scalar IntersectionExampleScenario.node[0].nic.mac1609_4 	TooLittleTime 	0
scalar IntersectionExampleScenario.node[0].nic.mac1609_4 	TimesIntoBackoff 	0
scalar IntersectionExampleScenario.node[0].nic.mac1609_4 	SlotsBackoff 	0
scalar IntersectionExampleScenario.node[0].nic.mac1609_4 	NumInternalContention 	0
scalar IntersectionExampleScenario.node[0].nic.mac1609_4 	totalBusyTime 	0
scalar IntersectionExampleScenario.node[0].veinsmobility 	startTime 	1.25
scalar IntersectionExampleScenario.node[0].veinsmobility 	totalTime 	40.25
scalar IntersectionExampleScenario.node[0].veinsmobility 	stopTime 	41.75
scalar IntersectionExampleScenario.node[0].veinsmobility 	minSpeed 	5.6500000953674
scalar IntersectionExampleScenario.node[0].veinsmobility 	maxSpeed 	15.64999961853
scalar IntersectionExampleScenario.node[0].veinsmobility 	totalDistance 	543.88905966838
scalar IntersectionExampleScenario.node[0].veinsmobility 	totalCO2Emission 	125.91256791225
scalar IntersectionExampleScenario.node[1].appl 	VehicleRemoved 	0
scalar IntersectionExampleScenario.node[1].appl 	ArrivedAtDest 	1
scalar IntersectionExampleScenario.node[1].appl 	IntersectionEnterTime 	4.5
scalar IntersectionExampleScenario.node[1].appl 	IntersectionExitTime 	28.034598486294
scalar IntersectionExampleScenario.node[1].appl 	NumberOfCollisions 	0
scalar IntersectionExampleScenario.node[1].nic.phy80211p 	busyTime 	0
scalar IntersectionExampleScenario.node[1].nic.mac1609_4 	ReceivedUnicastPackets 	0
scalar IntersectionExampleScenario.node[1].nic.mac1609_4 	ReceivedBroadcasts 	0
scalar IntersectionExampleScenario.node[1].nic.mac1609_4 	SentPackets 	0
scalar IntersectionExampleScenario.node[1].nic.mac1609_4 	SNIRLostPackets 	0
scalar IntersectionExampleScenario.node[1].nic.mac1609_4 	RXTXLostPackets 	0
scalar IntersectionExampleScenario.node[1].nic.mac1609_4 	TotalLostPackets 	0
scalar IntersectionExampleScenario.node[1].nic.mac1609_4 	DroppedPacketsInMac 	0
scalar IntersectionExampleScenario.node[1].nic.mac1609_4 	TooLittleTime 	0
scalar IntersectionExampleScenario.node[1].nic.mac1609_4 	TimesIntoBackoff 	0
scalar IntersectionExampleScenario.node[1].nic.mac1609_4 	SlotsBackoff 	0
scalar IntersectionExampleScenario.node[1].nic.mac1609_4 	NumInternalContention 	0
scalar IntersectionExampleScenario.node[1].nic.mac1609_4 	totalBusyTime 	0
scalar IntersectionExampleScenario.node[1].veinsmobility 	startTime 	4.5
scalar IntersectionExampleScenario.node[1].veinsmobility 	totalTime 	40.25
scalar IntersectionExampleScenario.node[1].veinsmobility 	stopTime 	45
scalar IntersectionExampleScenario.node[1].veinsmobility 	minSpeed 	5.6500000953674
scalar IntersectionExampleScenario.node[1].veinsmobility 	maxSpeed 	15.02499961853
scalar IntersectionExampleScenario.node[1].veinsmobility 	totalDistance 	552.42441558838
scalar IntersectionExampleScenario.node[1].veinsmobility 	totalCO2Emission 	113.34445255964
scalar IntersectionExampleScenario.node[7].appl 	VehicleRemoved 	0
scalar IntersectionExampleScenario.node[7].appl 	ArrivedAtDest 	1
scalar IntersectionExampleScenario.node[7].appl 	IntersectionEnterTime 	10.25
scalar IntersectionExampleScenario.node[7].appl 	IntersectionExitTime 	32.813072649209
scalar IntersectionExampleScenario.node[7].appl 	NumberOfCollisions 	0
scalar IntersectionExampleScenario.node[7].nic.phy80211p 	busyTime 	0
scalar IntersectionExampleScenario.node[7].nic.mac1609_4 	ReceivedUnicastPackets 	0
scalar IntersectionExampleScenario.node[7].nic.mac1609_4 	ReceivedBroadcasts 	0
scalar IntersectionExampleScenario.node[7].nic.mac1609_4 	SentPackets 	0
scalar IntersectionExampleScenario.node[7].nic.mac1609_4 	SNIRLostPackets 	0
scalar IntersectionExampleScenario.node[7].nic.mac1609_4 	RXTXLostPackets 	0
scalar IntersectionExampleScenario.node[7].nic.mac1609_4 	TotalLostPackets 	0
scalar IntersectionExampleScenario.node[7].nic.mac1609_4 	DroppedPacketsInMac 	0
scalar IntersectionExampleScenario.node[7].nic.mac1609_4 	TooLittleTime 	0
scalar IntersectionExampleScenario.node[7].nic.mac1609_4 	TimesIntoBackoff 	0
scalar IntersectionExampleScenario.node[7].nic.mac1609_4 	SlotsBackoff 	0
scalar IntersectionExampleScenario.node[7].nic.mac1609_4 	NumInternalContention 	0
scalar IntersectionExampleScenario.node[7].nic.mac1609_4 	totalBusyTime 	0
scalar IntersectionExampleScenario.node[7].veinsmobility 	startTime 	10.25
scalar IntersectionExampleScenario.node[7].veinsmobility 	totalTime 	38.25
scalar IntersectionExampleScenario.node[7].veinsmobility 	stopTime 	48.75
scalar IntersectionExampleScenario.node[7].veinsmobility 	minSpeed 	5.6500000953674
scalar IntersectionExampleScenario.node[7].veinsmobility 	maxSpeed 	15.592131614685
scalar IntersectionExampleScenario.node[7].veinsmobility 	totalDistance 	552.40232086182
scalar IntersectionExampleScenario.node[7].veinsmobility 	totalCO2Emission 	119.42666734986
scalar IntersectionExampleScenario.node[4].appl 	VehicleRemoved 	0
scalar IntersectionExampleScenario.node[4].appl 	ArrivedAtDest 	1
scalar IntersectionExampleScenario.node[4].appl 	IntersectionEnterTime 	6.5
scalar IntersectionExampleScenario.node[4].appl 	IntersectionExitTime 	35.527798255673
scalar IntersectionExampleScenario.node[4].appl 	NumberOfCollisions 	0
scalar IntersectionExampleScenario.node[4].nic.phy80211p 	busyTime 	0
scalar IntersectionExampleScenario.node[4].nic.mac1609_4 	ReceivedUnicastPackets 	0
scalar IntersectionExampleScenario.node[4].nic.mac1609_4 	ReceivedBroadcasts 	0
scalar IntersectionExampleScenario.node[4].nic.mac1609_4 	SentPackets 	0
scalar IntersectionExampleScenario.node[4].nic.mac1609_4 	SNIRLostPackets 	0
scalar IntersectionExampleScenario.node[4].nic.mac1609_4 	RXTXLostPackets 	0
scalar IntersectionExampleScenario.node[4].nic.mac1609_4 	TotalLostPackets 	0
scalar IntersectionExampleScenario.node[4].nic.mac1609_4 	DroppedPacketsInMac 	0
scalar IntersectionExampleScenario.node[4].nic.mac1609_4 	TooLittleTime 	0
scalar IntersectionExampleScenario.node[4].nic.mac1609_4 	TimesIntoBackoff 	0
scalar IntersectionExampleScenario.node[4].nic.mac1609_4 	SlotsBackoff 	0
scalar IntersectionExampleScenario.node[4].nic.mac1609_4 	NumInternalContention 	0
scalar IntersectionExampleScenario.node[4].nic.mac1609_4 	totalBusyTime 	0
scalar IntersectionExampleScenario.node[4].veinsmobility 	startTime 	6.5
scalar IntersectionExampleScenario.node[4].veinsmobility 	totalTime 	45.5
scalar IntersectionExampleScenario.node[4].veinsmobility 	stopTime 	52.25
scalar IntersectionExampleScenario.node[4].veinsmobility 	minSpeed 	0
scalar IntersectionExampleScenario.node[4].veinsmobility 	maxSpeed 	15.875
scalar IntersectionExampleScenario.node[4].veinsmobility 	totalDistance 	514.57669736296
scalar IntersectionExampleScenario.node[4].veinsmobility 	totalCO2Emission 	137.81843141046
scalar IntersectionExampleScenario.node[2].appl 	VehicleRemoved 	0
scalar IntersectionExampleScenario.node[2].appl 	ArrivedAtDest 	1
scalar IntersectionExampleScenario.node[2].appl 	IntersectionEnterTime 	4.75
scalar IntersectionExampleScenario.node[2].appl 	IntersectionExitTime 	38.005725270137
scalar IntersectionExampleScenario.node[2].appl 	NumberOfCollisions 	0
scalar IntersectionExampleScenario.node[2].nic.phy80211p 	busyTime 	0
scalar IntersectionExampleScenario.node[2].nic.mac1609_4 	ReceivedUnicastPackets 	0
scalar IntersectionExampleScenario.node[2].nic.mac1609_4 	ReceivedBroadcasts 	0
scalar IntersectionExampleScenario.node[2].nic.mac1609_4 	SentPackets 	0
scalar IntersectionExampleScenario.node[2].nic.mac1609_4 	SNIRLostPackets 	0
scalar IntersectionExampleScenario.node[2].nic.mac1609_4 	RXTXLostPackets 	0
scalar IntersectionExampleScenario.node[2].nic.mac1609_4 	TotalLostPackets 	0
scalar IntersectionExampleScenario.node[2].nic.mac1609_4 	DroppedPacketsInMac 	0
scalar IntersectionExampleScenario.node[2].nic.mac1609_4 	TooLittleTime 	0
scalar IntersectionExampleScenario.node[2].nic.mac1609_4 	TimesIntoBackoff 	0
scalar IntersectionExampleScenario.node[2].nic.mac1609_4 	SlotsBackoff 	0
scalar IntersectionExampleScenario.node[2].nic.mac1609_4 	NumInternalContention 	0
scalar IntersectionExampleScenario.node[2].nic.mac1609_4 	totalBusyTime 	0
scalar IntersectionExampleScenario.node[2].veinsmobility 	startTime 	4.75
scalar IntersectionExampleScenario.node[2].veinsmobility 	totalTime 	49.5
scalar IntersectionExampleScenario.node[2].veinsmobility 	stopTime 	54.5
scalar IntersectionExampleScenario.node[2].veinsmobility 	minSpeed 	-1.1228927373886
scalar IntersectionExampleScenario.node[2].veinsmobility 	maxSpeed 	15.904373168945
scalar IntersectionExampleScenario.node[2].veinsmobility 	totalDistance 	545.60604358439
scalar IntersectionExampleScenario.node[2].veinsmobility 	totalCO2Emission 	150.74882550347
scalar IntersectionExampleScenario.node[3].appl 	VehicleRemoved 	0
scalar IntersectionExampleScenario.node[3].appl 	ArrivedAtDest 	1
scalar IntersectionExampleScenario.node[3].appl 	IntersectionEnterTime 	5
scalar IntersectionExampleScenario.node[3].appl 	IntersectionExitTime 	40.373632953124
scalar IntersectionExampleScenario.node[3].appl 	NumberOfCollisions 	0
scalar IntersectionExampleScenario.node[3].nic.phy80211p 	busyTime 	0
scalar IntersectionExampleScenario.node[3].nic.mac1609_4 	ReceivedUnicastPackets 	0
scalar IntersectionExampleScenario.node[3].nic.mac1609_4 	ReceivedBroadcasts 	0
scalar IntersectionExampleScenario.node[3].nic.mac1609_4 	SentPackets 	0
scalar IntersectionExampleScenario.node[3].nic.mac1609_4 	SNIRLostPackets 	0
scalar IntersectionExampleScenario.node[3].nic.mac1609_4 	RXTXLostPackets 	0
scalar IntersectionExampleScenario.node[3].nic.mac1609_4 	TotalLostPackets 	0
scalar IntersectionExampleScenario.node[3].nic.mac1609_4 	DroppedPacketsInMac 	0
scalar IntersectionExampleScenario.node[3].nic.mac1609_4 	TooLittleTime 	0
scalar IntersectionExampleScenario.node[3].nic.mac1609_4 	TimesIntoBackoff 	0
scalar IntersectionExampleScenario.node[3].nic.mac1609_4 	SlotsBackoff 	0
scalar IntersectionExampleScenario.node[3].nic.mac1609_4 	NumInternalContention 	0
scalar IntersectionExampleScenario.node[3].nic.mac1609_4 	totalBusyTime 	0
scalar IntersectionExampleScenario.node[3].veinsmobility 	startTime 	5
scalar IntersectionExampleScenario.node[3].veinsmobility 	totalTime 	52
scalar IntersectionExampleScenario.node[3].veinsmobility 	stopTime 	57.25
scalar IntersectionExampleScenario.node[3].veinsmobility 	minSpeed 	0
scalar IntersectionExampleScenario.node[3].veinsmobility 	maxSpeed 	15.875
scalar IntersectionExampleScenario.node[3].veinsmobility 	totalDistance 	571.36320869825
scalar IntersectionExampleScenario.node[3].veinsmobility 	totalCO2Emission 	145.80039286996
scalar IntersectionExampleScenario.node[5].appl 	VehicleRemoved 	0
scalar IntersectionExampleScenario.node[5].appl 	ArrivedAtDest 	1
scalar IntersectionExampleScenario.node[5].appl 	IntersectionEnterTime 	7
scalar IntersectionExampleScenario.node[5].appl 	IntersectionExitTime 	42.758735015785
scalar IntersectionExampleScenario.node[5].appl 	NumberOfCollisions 	0
scalar IntersectionExampleScenario.node[5].nic.phy80211p 	busyTime 	0
scalar IntersectionExampleScenario.node[5].nic.mac1609_4 	ReceivedUnicastPackets 	0
scalar IntersectionExampleScenario.node[5].nic.mac1609_4 	ReceivedBroadcasts 	0
scalar IntersectionExampleScenario.node[5].nic.mac1609_4 	SentPackets 	0
scalar IntersectionExampleScenario.node[5].nic.mac1609_4 	SNIRLostPackets 	0
scalar IntersectionExampleScenario.node[5].nic.mac1609_4 	RXTXLostPackets 	0
scalar IntersectionExampleScenario.node[5].nic.mac1609_4 	TotalLostPackets 	0
scalar IntersectionExampleScenario.node[5].nic.mac1609_4 	DroppedPacketsInMac 	0
scalar IntersectionExampleScenario.node[5].nic.mac1609_4 	TooLittleTime 	0
scalar IntersectionExampleScenario.node[5].nic.mac1609_4 	TimesIntoBackoff 	0
scalar IntersectionExampleScenario.node[5].nic.mac1609_4 	SlotsBackoff 	0
scalar IntersectionExampleScenario.node[5].nic.mac1609_4 	NumInternalContention 	0
scalar IntersectionExampleScenario.node[5].nic.mac1609_4 	totalBusyTime 	0
scalar IntersectionExampleScenario.node[5].veinsmobility 	startTime 	7
scalar IntersectionExampleScenario.node[5].veinsmobility 	totalTime 	52.25
scalar IntersectionExampleScenario.node[5].veinsmobility 	stopTime 	59.5
scalar IntersectionExampleScenario.node[5].veinsmobility 	minSpeed 	1.2101948261261
scalar IntersectionExampleScenario.node[5].veinsmobility 	maxSpeed 	15.875
scalar IntersectionExampleScenario.node[5].veinsmobility 	totalDistance 	576.43436207434
scalar IntersectionExampleScenario.node[5].veinsmobility 	totalCO2Emission 	149.12337279779
scalar IntersectionExampleScenario.node[6].appl 	VehicleRemoved 	0
scalar IntersectionExampleScenario.node[6].appl 	ArrivedAtDest 	1
scalar IntersectionExampleScenario.node[6].appl 	IntersectionEnterTime 	9.75
scalar IntersectionExampleScenario.node[6].appl 	IntersectionExitTime 	44.609340265917
scalar IntersectionExampleScenario.node[6].appl 	NumberOfCollisions 	0
scalar IntersectionExampleScenario.node[6].nic.phy80211p 	busyTime 	0
scalar IntersectionExampleScenario.node[6].nic.mac1609_4 	ReceivedUnicastPackets 	0
scalar IntersectionExampleScenario.node[6].nic.mac1609_4 	ReceivedBroadcasts 	0
scalar IntersectionExampleScenario.node[6].nic.mac1609_4 	SentPackets 	0
scalar IntersectionExampleScenario.node[6].nic.mac1609_4 	SNIRLostPackets 	0
scalar IntersectionExampleScenario.node[6].nic.mac1609_4 	RXTXLostPackets 	0
scalar IntersectionExampleScenario.node[6].nic.mac1609_4 	TotalLostPackets 	0
scalar IntersectionExampleScenario.node[6].nic.mac1609_4 	DroppedPacketsInMac 	0
scalar IntersectionExampleScenario.node[6].nic.mac1609_4 	TooLittleTime 	0
scalar IntersectionExampleScenario.node[6].nic.mac1609_4 	TimesIntoBackoff 	0
scalar IntersectionExampleScenario.node[6].nic.mac1609_4 	SlotsBackoff 	0
scalar IntersectionExampleScenario.node[6].nic.mac1609_4 	NumInternalContention 	0
scalar IntersectionExampleScenario.node[6].nic.mac1609_4 	totalBusyTime 	0
scalar IntersectionExampleScenario.node[6].veinsmobility 	startTime 	9.75
scalar IntersectionExampleScenario.node[6].veinsmobility 	totalTime 	50.25
scalar IntersectionExampleScenario.node[6].veinsmobility 	stopTime 	60.25
scalar IntersectionExampleScenario.node[6].veinsmobility 	minSpeed 	3.5325281620026
scalar IntersectionExampleScenario.node[6].veinsmobility 	maxSpeed 	16.125
scalar IntersectionExampleScenario.node[6].veinsmobility 	totalDistance 	582.71321105957
scalar IntersectionExampleScenario.node[6].veinsmobility 	totalCO2Emission 	145.79244740672
scalar IntersectionExampleScenario.node[9].appl 	VehicleRemoved 	0
scalar IntersectionExampleScenario.node[9].appl 	ArrivedAtDest 	1
scalar IntersectionExampleScenario.node[9].appl 	IntersectionEnterTime 	13
scalar IntersectionExampleScenario.node[9].appl 	IntersectionExitTime 	45.531109612988
scalar IntersectionExampleScenario.node[9].appl 	NumberOfCollisions 	0
scalar IntersectionExampleScenario.node[9].nic.phy80211p 	busyTime 	0
scalar IntersectionExampleScenario.node[9].nic.mac1609_4 	ReceivedUnicastPackets 	0
scalar IntersectionExampleScenario.node[9].nic.mac1609_4 	ReceivedBroadcasts 	0
scalar IntersectionExampleScenario.node[9].nic.mac1609_4 	SentPackets 	0
scalar IntersectionExampleScenario.node[9].nic.mac1609_4 	SNIRLostPackets 	0
scalar IntersectionExampleScenario.node[9].nic.mac1609_4 	RXTXLostPackets 	0
scalar IntersectionExampleScenario.node[9].nic.mac1609_4 	TotalLostPackets 	0
scalar IntersectionExampleScenario.node[9].nic.mac1609_4 	DroppedPacketsInMac 	0
scalar IntersectionExampleScenario.node[9].nic.mac1609_4 	TooLittleTime 	0
scalar IntersectionExampleScenario.node[9].nic.mac1609_4 	TimesIntoBackoff 	0
scalar IntersectionExampleScenario.node[9].nic.mac1609_4 	SlotsBackoff 	0
scalar IntersectionExampleScenario.node[9].nic.mac1609_4 	NumInternalContention 	0
scalar IntersectionExampleScenario.node[9].nic.mac1609_4 	totalBusyTime 	0
scalar IntersectionExampleScenario.node[9].veinsmobility 	startTime 	13
scalar IntersectionExampleScenario.node[9].veinsmobility 	totalTime 	48.5
scalar IntersectionExampleScenario.node[9].veinsmobility 	stopTime 	61.75
scalar IntersectionExampleScenario.node[9].veinsmobility 	minSpeed 	0
scalar IntersectionExampleScenario.node[9].veinsmobility 	maxSpeed 	16.5
scalar IntersectionExampleScenario.node[9].veinsmobility 	totalDistance 	543.0530691281
scalar IntersectionExampleScenario.node[9].veinsmobility 	totalCO2Emission 	146.85596638551
scalar IntersectionExampleScenario.node[10].appl 	VehicleRemoved 	0
scalar IntersectionExampleScenario.node[10].appl 	ArrivedAtDest 	1
scalar IntersectionExampleScenario.node[10].appl 	IntersectionEnterTime 	18
scalar IntersectionExampleScenario.node[10].appl 	IntersectionExitTime 	47.616249521147
scalar IntersectionExampleScenario.node[10].appl 	NumberOfCollisions 	0
scalar IntersectionExampleScenario.node[10].nic.phy80211p 	busyTime 	0
scalar IntersectionExampleScenario.node[10].nic.mac1609_4 	ReceivedUnicastPackets 	0
scalar IntersectionExampleScenario.node[10].nic.mac1609_4 	ReceivedBroadcasts 	0
scalar IntersectionExampleScenario.node[10].nic.mac1609_4 	SentPackets 	0
scalar IntersectionExampleScenario.node[10].nic.mac1609_4 	SNIRLostPackets 	0
scalar IntersectionExampleScenario.node[10].nic.mac1609_4 	RXTXLostPackets 	0
scalar IntersectionExampleScenario.node[10].nic.mac1609_4 	TotalLostPackets 	0
scalar IntersectionExampleScenario.node[10].nic.mac1609_4 	DroppedPacketsInMac 	0
scalar IntersectionExampleScenario.node[10].nic.mac1609_4 	TooLittleTime 	0
scalar IntersectionExampleScenario.node[10].nic.mac1609_4 	TimesIntoBackoff 	0
scalar IntersectionExampleScenario.node[10].nic.mac1609_4 	SlotsBackoff 	0
scalar IntersectionExampleScenario.node[10].nic.mac1609_4 	NumInternalContention 	0
scalar IntersectionExampleScenario.node[10].nic.mac1609_4 	totalBusyTime 	0
scalar IntersectionExampleScenario.node[10].veinsmobility 	startTime 	18
scalar IntersectionExampleScenario.node[10].veinsmobility 	totalTime 	45.75
scalar IntersectionExampleScenario.node[10].veinsmobility 	stopTime 	64
scalar IntersectionExampleScenario.node[10].veinsmobility 	minSpeed 	2.3628768920898
scalar IntersectionExampleScenario.node[10].veinsmobility 	maxSpeed 	15.02499961853
scalar IntersectionExampleScenario.node[10].veinsmobility 	totalDistance 	552.58219146729
scalar IntersectionExampleScenario.node[10].veinsmobility 	totalCO2Emission 	131.37968455924
scalar IntersectionExampleScenario.node[13].appl 	VehicleRemoved 	0
scalar IntersectionExampleScenario.node[13].appl 	ArrivedAtDest 	1
scalar IntersectionExampleScenario.node[13].appl 	IntersectionEnterTime 	27.25
scalar IntersectionExampleScenario.node[13].appl 	IntersectionExitTime 	51.566380892764
scalar IntersectionExampleScenario.node[13].appl 	NumberOfCollisions 	0
scalar IntersectionExampleScenario.node[13].nic.phy80211p 	busyTime 	0
scalar IntersectionExampleScenario.node[13].nic.mac1609_4 	ReceivedUnicastPackets 	0
scalar IntersectionExampleScenario.node[13].nic.mac1609_4 	ReceivedBroadcasts 	0
scalar IntersectionExampleScenario.node[13].nic.mac1609_4 	SentPackets 	0
scalar IntersectionExampleScenario.node[13].nic.mac1609_4 	SNIRLostPackets 	0
scalar IntersectionExampleScenario.node[13].nic.mac1609_4 	RXTXLostPackets 	0
scalar IntersectionExampleScenario.node[13].nic.mac1609_4 	TotalLostPackets 	0
scalar IntersectionExampleScenario.node[13].nic.mac1609_4 	DroppedPacketsInMac 	0
scalar IntersectionExampleScenario.node[13].nic.mac1609_4 	TooLittleTime 	0
scalar IntersectionExampleScenario.node[13].nic.mac1609_4 	TimesIntoBackoff 	0
scalar IntersectionExampleScenario.node[13].nic.mac1609_4 	SlotsBackoff 	0
scalar IntersectionExampleScenario.node[13].nic.mac1609_4 	NumInternalContention 	0
scalar IntersectionExampleScenario.node[13].nic.mac1609_4 	totalBusyTime 	0
scalar IntersectionExampleScenario.node[13].veinsmobility 	startTime 	27.25
scalar IntersectionExampleScenario.node[13].veinsmobility 	totalTime 	41.75
scalar IntersectionExampleScenario.node[13].veinsmobility 	stopTime 	69.25
scalar IntersectionExampleScenario.node[13].veinsmobility 	minSpeed 	5.6500000953674
scalar IntersectionExampleScenario.node[13].veinsmobility 	maxSpeed 	15.02499961853
scalar IntersectionExampleScenario.node[13].veinsmobility 	totalDistance 	546.25854692188
scalar IntersectionExampleScenario.node[13].veinsmobility 	totalCO2Emission 	128.73349399195
scalar IntersectionExampleScenario.node[8].appl 	VehicleRemoved 	0
scalar IntersectionExampleScenario.node[8].appl 	ArrivedAtDest 	1
scalar IntersectionExampleScenario.node[8].appl 	IntersectionEnterTime 	12
scalar IntersectionExampleScenario.node[8].appl 	IntersectionExitTime 	55.354015817982
scalar IntersectionExampleScenario.node[8].appl 	NumberOfCollisions 	0
scalar IntersectionExampleScenario.node[8].nic.phy80211p 	busyTime 	0
scalar IntersectionExampleScenario.node[8].nic.mac1609_4 	ReceivedUnicastPackets 	0
scalar IntersectionExampleScenario.node[8].nic.mac1609_4 	ReceivedBroadcasts 	0
scalar IntersectionExampleScenario.node[8].nic.mac1609_4 	SentPackets 	0
scalar IntersectionExampleScenario.node[8].nic.mac1609_4 	SNIRLostPackets 	0
scalar IntersectionExampleScenario.node[8].nic.mac1609_4 	RXTXLostPackets 	0
scalar IntersectionExampleScenario.node[8].nic.mac1609_4 	TotalLostPackets 	0
scalar IntersectionExampleScenario.node[8].nic.mac1609_4 	DroppedPacketsInMac 	0
scalar IntersectionExampleScenario.node[8].nic.mac1609_4 	TooLittleTime 	0
scalar IntersectionExampleScenario.node[8].nic.mac1609_4 	TimesIntoBackoff 	0
scalar IntersectionExampleScenario.node[8].nic.mac1609_4 	SlotsBackoff 	0
scalar IntersectionExampleScenario.node[8].nic.mac1609_4 	NumInternalContention 	0
scalar IntersectionExampleScenario.node[8].nic.mac1609_4 	totalBusyTime 	0
scalar IntersectionExampleScenario.node[8].veinsmobility 	startTime 	12
scalar IntersectionExampleScenario.node[8].veinsmobility 	totalTime 	59.25
scalar IntersectionExampleScenario.node[8].veinsmobility 	stopTime 	71.5
scalar IntersectionExampleScenario.node[8].veinsmobility 	minSpeed 	0
scalar IntersectionExampleScenario.node[8].veinsmobility 	maxSpeed 	15.64999961853
scalar IntersectionExampleScenario.node[8].veinsmobility 	totalDistance 	570.21389007568
scalar IntersectionExampleScenario.node[8].veinsmobility 	totalCO2Emission 	152.78150690796
scalar IntersectionExampleScenario.node[12].appl 	VehicleRemoved 	0
scalar IntersectionExampleScenario.node[12].appl 	ArrivedAtDest 	1
scalar IntersectionExampleScenario.node[12].appl 	IntersectionEnterTime 	26.25
scalar IntersectionExampleScenario.node[12].appl 	IntersectionExitTime 	54.521892064076
scalar IntersectionExampleScenario.node[12].appl 	NumberOfCollisions 	0
scalar IntersectionExampleScenario.node[12].nic.phy80211p 	busyTime 	0
scalar IntersectionExampleScenario.node[12].nic.mac1609_4 	ReceivedUnicastPackets 	0
scalar IntersectionExampleScenario.node[12].nic.mac1609_4 	ReceivedBroadcasts 	0
scalar IntersectionExampleScenario.node[12].nic.mac1609_4 	SentPackets 	0
scalar IntersectionExampleScenario.node[12].nic.mac1609_4 	SNIRLostPackets 	0
scalar IntersectionExampleScenario.node[12].nic.mac1609_4 	RXTXLostPackets 	0
scalar IntersectionExampleScenario.node[12].nic.mac1609_4 	TotalLostPackets 	0
scalar IntersectionExampleScenario.node[12].nic.mac1609_4 	DroppedPacketsInMac 	0
scalar IntersectionExampleScenario.node[12].nic.mac1609_4 	TooLittleTime 	0
scalar IntersectionExampleScenario.node[12].nic.mac1609_4 	TimesIntoBackoff 	0
scalar IntersectionExampleScenario.node[12].nic.mac1609_4 	SlotsBackoff 	0
scalar IntersectionExampleScenario.node[12].nic.mac1609_4 	NumInternalContention 	0
scalar IntersectionExampleScenario.node[12].nic.mac1609_4 	totalBusyTime 	0
scalar IntersectionExampleScenario.node[12].veinsmobility 	startTime 	26.25
scalar IntersectionExampleScenario.node[12].veinsmobility 	totalTime 	45.75
scalar IntersectionExampleScenario.node[12].veinsmobility 	stopTime 	72.25
scalar IntersectionExampleScenario.node[12].veinsmobility 	minSpeed 	0
scalar IntersectionExampleScenario.node[12].veinsmobility 	maxSpeed 	15.02499961853
scalar IntersectionExampleScenario.node[12].veinsmobility 	totalDistance 	546.21672727019
scalar IntersectionExampleScenario.node[12].veinsmobility 	totalCO2Emission 	132.69530538394
scalar IntersectionExampleScenario.node[15].appl 	VehicleRemoved 	0
scalar IntersectionExampleScenario.node[15].appl 	ArrivedAtDest 	1
scalar IntersectionExampleScenario.node[15].appl 	IntersectionEnterTime 	31
scalar IntersectionExampleScenario.node[15].appl 	IntersectionExitTime 	56.358060634608
scalar IntersectionExampleScenario.node[15].appl 	NumberOfCollisions 	0
scalar IntersectionExampleScenario.node[15].nic.phy80211p 	busyTime 	0
scalar IntersectionExampleScenario.node[15].nic.mac1609_4 	ReceivedUnicastPackets 	0
scalar IntersectionExampleScenario.node[15].nic.mac1609_4 	ReceivedBroadcasts 	0
scalar IntersectionExampleScenario.node[15].nic.mac1609_4 	SentPackets 	0
scalar IntersectionExampleScenario.node[15].nic.mac1609_4 	SNIRLostPackets 	0
scalar IntersectionExampleScenario.node[15].nic.mac1609_4 	RXTXLostPackets 	0
scalar IntersectionExampleScenario.node[15].nic.mac1609_4 	TotalLostPackets 	0
scalar IntersectionExampleScenario.node[15].nic.mac1609_4 	DroppedPacketsInMac 	0
scalar IntersectionExampleScenario.node[15].nic.mac1609_4 	TooLittleTime 	0
scalar IntersectionExampleScenario.node[15].nic.mac1609_4 	TimesIntoBackoff 	0
scalar IntersectionExampleScenario.node[15].nic.mac1609_4 	SlotsBackoff 	0
scalar IntersectionExampleScenario.node[15].nic.mac1609_4 	NumInternalContention 	0
scalar IntersectionExampleScenario.node[15].nic.mac1609_4 	totalBusyTime 	0
scalar IntersectionExampleScenario.node[15].veinsmobility 	startTime 	31
scalar IntersectionExampleScenario.node[15].veinsmobility 	totalTime 	41.5
scalar IntersectionExampleScenario.node[15].veinsmobility 	stopTime 	72.75
scalar IntersectionExampleScenario.node[15].veinsmobility 	minSpeed 	5.1172728538513
scalar IntersectionExampleScenario.node[15].veinsmobility 	maxSpeed 	15.375
scalar IntersectionExampleScenario.node[15].veinsmobility 	totalDistance 	550.96485688819
scalar IntersectionExampleScenario.node[15].veinsmobility 	totalCO2Emission 	130.57918298293
scalar IntersectionExampleScenario.node[11].appl 	VehicleRemoved 	0
scalar IntersectionExampleScenario.node[11].appl 	ArrivedAtDest 	1
scalar IntersectionExampleScenario.node[11].appl 	IntersectionEnterTime 	23.75
scalar IntersectionExampleScenario.node[11].appl 	IntersectionExitTime 	57.254045656795
scalar IntersectionExampleScenario.node[11].appl 	NumberOfCollisions 	0
scalar IntersectionExampleScenario.node[11].nic.phy80211p 	busyTime 	0
scalar IntersectionExampleScenario.node[11].nic.mac1609_4 	ReceivedUnicastPackets 	0
scalar IntersectionExampleScenario.node[11].nic.mac1609_4 	ReceivedBroadcasts 	0
scalar IntersectionExampleScenario.node[11].nic.mac1609_4 	SentPackets 	0
scalar IntersectionExampleScenario.node[11].nic.mac1609_4 	SNIRLostPackets 	0
scalar IntersectionExampleScenario.node[11].nic.mac1609_4 	RXTXLostPackets 	0
scalar IntersectionExampleScenario.node[11].nic.mac1609_4 	TotalLostPackets 	0
scalar IntersectionExampleScenario.node[11].nic.mac1609_4 	DroppedPacketsInMac 	0
scalar IntersectionExampleScenario.node[11].nic.mac1609_4 	TooLittleTime 	0
scalar IntersectionExampleScenario.node[11].nic.mac1609_4 	TimesIntoBackoff 	0
scalar IntersectionExampleScenario.node[11].nic.mac1609_4 	SlotsBackoff 	0
scalar IntersectionExampleScenario.node[11].nic.mac1609_4 	NumInternalContention 	0
scalar IntersectionExampleScenario.node[11].nic.mac1609_4 	totalBusyTime 	0
scalar IntersectionExampleScenario.node[11].veinsmobility 	startTime 	23.75
scalar IntersectionExampleScenario.node[11].veinsmobility 	totalTime 	49.75
scalar IntersectionExampleScenario.node[11].veinsmobility 	stopTime 	73.75
scalar IntersectionExampleScenario.node[11].veinsmobility 	minSpeed 	1.4189453125
scalar IntersectionExampleScenario.node[11].veinsmobility 	maxSpeed 	15.058072090149
scalar IntersectionExampleScenario.node[11].veinsmobility 	totalDistance 	553.76047515869
scalar IntersectionExampleScenario.node[11].veinsmobility 	totalCO2Emission 	136.91307437409
scalar IntersectionExampleScenario.node[14].appl 	VehicleRemoved 	0
scalar IntersectionExampleScenario.node[14].appl 	ArrivedAtDest 	1
scalar IntersectionExampleScenario.node[14].appl 	IntersectionEnterTime 	29.75
scalar IntersectionExampleScenario.node[14].appl 	IntersectionExitTime 	59.040793925669
scalar IntersectionExampleScenario.node[14].appl 	NumberOfCollisions 	0
scalar IntersectionExampleScenario.node[14].nic.phy80211p 	busyTime 	0
scalar IntersectionExampleScenario.node[14].nic.mac1609_4 	ReceivedUnicastPackets 	0
scalar IntersectionExampleScenario.node[14].nic.mac1609_4 	ReceivedBroadcasts 	0
scalar IntersectionExampleScenario.node[14].nic.mac1609_4 	SentPackets 	0
scalar IntersectionExampleScenario.node[14].nic.mac1609_4 	SNIRLostPackets 	0
scalar IntersectionExampleScenario.node[14].nic.mac1609_4 	RXTXLostPackets 	0
scalar IntersectionExampleScenario.node[14].nic.mac1609_4 	TotalLostPackets 	0
scalar IntersectionExampleScenario.node[14].nic.mac1609_4 	DroppedPacketsInMac 	0
scalar IntersectionExampleScenario.node[14].nic.mac1609_4 	TooLittleTime 	0
scalar IntersectionExampleScenario.node[14].nic.mac1609_4 	TimesIntoBackoff 	0
scalar IntersectionExampleScenario.node[14].nic.mac1609_4 	SlotsBackoff 	0
scalar IntersectionExampleScenario.node[14].nic.mac1609_4 	NumInternalContention 	0
scalar IntersectionExampleScenario.node[14].nic.mac1609_4 	totalBusyTime 	0
scalar IntersectionExampleScenario.node[14].veinsmobility 	startTime 	29.75
scalar IntersectionExampleScenario.node[14].veinsmobility 	totalTime 	44.75
scalar IntersectionExampleScenario.node[14].veinsmobility 	stopTime 	74.75
scalar IntersectionExampleScenario.node[14].veinsmobility 	minSpeed 	4.8565950393677
scalar IntersectionExampleScenario.node[14].veinsmobility 	maxSpeed 	16.524446487427
scalar IntersectionExampleScenario.node[14].veinsmobility 	totalDistance 	551.75656890869
scalar IntersectionExampleScenario.node[14].veinsmobility 	totalCO2Emission 	141.3052309902
scalar IntersectionExampleScenario.node[16].appl 	VehicleRemoved 	0
scalar IntersectionExampleScenario.node[16].appl 	ArrivedAtDest 	1
scalar IntersectionExampleScenario.node[16].appl 	IntersectionEnterTime 	32.5
scalar IntersectionExampleScenario.node[16].appl 	IntersectionExitTime 	59.298413441604
scalar IntersectionExampleScenario.node[16].appl 	NumberOfCollisions 	0
scalar IntersectionExampleScenario.node[16].nic.phy80211p 	busyTime 	0
scalar IntersectionExampleScenario.node[16].nic.mac1609_4 	ReceivedUnicastPackets 	0
scalar IntersectionExampleScenario.node[16].nic.mac1609_4 	ReceivedBroadcasts 	0
scalar IntersectionExampleScenario.node[16].nic.mac1609_4 	SentPackets 	0
scalar IntersectionExampleScenario.node[16].nic.mac1609_4 	SNIRLostPackets 	0
scalar IntersectionExampleScenario.node[16].nic.mac1609_4 	RXTXLostPackets 	0
scalar IntersectionExampleScenario.node[16].nic.mac1609_4 	TotalLostPackets 	0
scalar IntersectionExampleScenario.node[16].nic.mac1609_4 	DroppedPacketsInMac 	0
scalar IntersectionExampleScenario.node[16].nic.mac1609_4 	TooLittleTime 	0
scalar IntersectionExampleScenario.node[16].nic.mac1609_4 	TimesIntoBackoff 	0
scalar IntersectionExampleScenario.node[16].nic.mac1609_4 	SlotsBackoff 	0
scalar IntersectionExampleScenario.node[16].nic.mac1609_4 	NumInternalContention 	0
scalar IntersectionExampleScenario.node[16].nic.mac1609_4 	totalBusyTime 	0
scalar IntersectionExampleScenario.node[16].veinsmobility 	startTime 	32.5
scalar IntersectionExampleScenario.node[16].veinsmobility 	totalTime 	43.25
scalar IntersectionExampleScenario.node[16].veinsmobility 	stopTime 	76
scalar IntersectionExampleScenario.node[16].veinsmobility 	minSpeed 	5.6500000953674
scalar IntersectionExampleScenario.node[16].veinsmobility 	maxSpeed 	15.755067825317
scalar IntersectionExampleScenario.node[16].veinsmobility 	totalDistance 	566.33020357045
scalar IntersectionExampleScenario.node[16].veinsmobility 	totalCO2Emission 	148.31581134525
scalar IntersectionExampleScenario.node[18].appl 	VehicleRemoved 	0
scalar IntersectionExampleScenario.node[18].appl 	ArrivedAtDest 	1
scalar IntersectionExampleScenario.node[18].appl 	IntersectionEnterTime 	36.75
scalar IntersectionExampleScenario.node[18].appl 	IntersectionExitTime 	61.75740653422
scalar IntersectionExampleScenario.node[18].appl 	NumberOfCollisions 	0
scalar IntersectionExampleScenario.node[18].nic.phy80211p 	busyTime 	0
scalar IntersectionExampleScenario.node[18].nic.mac1609_4 	ReceivedUnicastPackets 	0
scalar IntersectionExampleScenario.node[18].nic.mac1609_4 	ReceivedBroadcasts 	0
scalar IntersectionExampleScenario.node[18].nic.mac1609_4 	SentPackets 	0
scalar IntersectionExampleScenario.node[18].nic.mac1609_4 	SNIRLostPackets 	0
scalar IntersectionExampleScenario.node[18].nic.mac1609_4 	RXTXLostPackets 	0
scalar IntersectionExampleScenario.node[18].nic.mac1609_4 	TotalLostPackets 	0
scalar IntersectionExampleScenario.node[18].nic.mac1609_4 	DroppedPacketsInMac 	0
scalar IntersectionExampleScenario.node[18].nic.mac1609_4 	TooLittleTime 	0
scalar IntersectionExampleScenario.node[18].nic.mac1609_4 	TimesIntoBackoff 	0
scalar IntersectionExampleScenario.node[18].nic.mac1609_4 	SlotsBackoff 	0
scalar IntersectionExampleScenario.node[18].nic.mac1609_4 	NumInternalContention 	0
scalar IntersectionExampleScenario.node[18].nic.mac1609_4 	totalBusyTime 	0
scalar IntersectionExampleScenario.node[18].veinsmobility 	startTime 	36.75
scalar IntersectionExampleScenario.node[18].veinsmobility 	totalTime 	42
scalar IntersectionExampleScenario.node[18].veinsmobility 	stopTime 	79
scalar IntersectionExampleScenario.node[18].veinsmobility 	minSpeed 	5.6500000953674
scalar IntersectionExampleScenario.node[18].veinsmobility 	maxSpeed 	15.25
scalar IntersectionExampleScenario.node[18].veinsmobility 	totalDistance 	544.68958596434
scalar IntersectionExampleScenario.node[18].veinsmobility 	totalCO2Emission 	128.11974811336
scalar IntersectionExampleScenario.node[23].appl 	VehicleRemoved 	0
scalar IntersectionExampleScenario.node[23].appl 	ArrivedAtDest 	1
scalar IntersectionExampleScenario.node[23].appl 	IntersectionEnterTime 	40.75
scalar IntersectionExampleScenario.node[23].appl 	IntersectionExitTime 	63.001831759466
scalar IntersectionExampleScenario.node[23].appl 	NumberOfCollisions 	0
scalar IntersectionExampleScenario.node[23].nic.phy80211p 	busyTime 	0
scalar IntersectionExampleScenario.node[23].nic.mac1609_4 	ReceivedUnicastPackets 	0
scalar IntersectionExampleScenario.node[23].nic.mac1609_4 	ReceivedBroadcasts 	0
scalar IntersectionExampleScenario.node[23].nic.mac1609_4 	SentPackets 	0
scalar IntersectionExampleScenario.node[23].nic.mac1609_4 	SNIRLostPackets 	0
scalar IntersectionExampleScenario.node[23].nic.mac1609_4 	RXTXLostPackets 	0
scalar IntersectionExampleScenario.node[23].nic.mac1609_4 	TotalLostPackets 	0
scalar IntersectionExampleScenario.node[23].nic.mac1609_4 	DroppedPacketsInMac 	0
scalar IntersectionExampleScenario.node[23].nic.mac1609_4 	TooLittleTime 	0
scalar IntersectionExampleScenario.node[23].nic.mac1609_4 	TimesIntoBackoff 	0
scalar IntersectionExampleScenario.node[23].nic.mac1609_4 	SlotsBackoff 	0
scalar IntersectionExampleScenario.node[23].nic.mac1609_4 	NumInternalContention 	0
scalar IntersectionExampleScenario.node[23].nic.mac1609_4 	totalBusyTime 	0
scalar IntersectionExampleScenario.node[23].veinsmobility 	startTime 	40.75
scalar IntersectionExampleScenario.node[23].veinsmobility 	totalTime 	39.5
scalar IntersectionExampleScenario.node[23].veinsmobility 	stopTime 	80.5
scalar IntersectionExampleScenario.node[23].veinsmobility 	minSpeed 	5.6500000953674
scalar IntersectionExampleScenario.node[23].veinsmobility 	maxSpeed 	15.02499961853
scalar IntersectionExampleScenario.node[23].veinsmobility 	totalDistance 	514.88598484787
scalar IntersectionExampleScenario.node[23].veinsmobility 	totalCO2Emission 	117.18906293156
scalar IntersectionExampleScenario.node[21].appl 	VehicleRemoved 	0
scalar IntersectionExampleScenario.node[21].appl 	ArrivedAtDest 	1
scalar IntersectionExampleScenario.node[21].appl 	IntersectionEnterTime 	39.5
scalar IntersectionExampleScenario.node[21].appl 	IntersectionExitTime 	65.796998389036
scalar IntersectionExampleScenario.node[21].appl 	NumberOfCollisions 	0
scalar IntersectionExampleScenario.node[21].nic.phy80211p 	busyTime 	0
scalar IntersectionExampleScenario.node[21].nic.mac1609_4 	ReceivedUnicastPackets 	0
scalar IntersectionExampleScenario.node[21].nic.mac1609_4 	ReceivedBroadcasts 	0
scalar IntersectionExampleScenario.node[21].nic.mac1609_4 	SentPackets 	0
scalar IntersectionExampleScenario.node[21].nic.mac1609_4 	SNIRLostPackets 	0
scalar IntersectionExampleScenario.node[21].nic.mac1609_4 	RXTXLostPackets 	0
scalar IntersectionExampleScenario.node[21].nic.mac1609_4 	TotalLostPackets 	0
scalar IntersectionExampleScenario.node[21].nic.mac1609_4 	DroppedPacketsInMac 	0
scalar IntersectionExampleScenario.node[21].nic.mac1609_4 	TooLittleTime 	0
scalar IntersectionExampleScenario.node[21].nic.mac1609_4 	TimesIntoBackoff 	0
scalar IntersectionExampleScenario.node[21].nic.mac1609_4 	SlotsBackoff 	0
scalar IntersectionExampleScenario.node[21].nic.mac1609_4 	NumInternalContention 	0
scalar IntersectionExampleScenario.node[21].nic.mac1609_4 	totalBusyTime 	0
scalar IntersectionExampleScenario.node[21].veinsmobility 	startTime 	39.5
scalar IntersectionExampleScenario.node[21].veinsmobility 	totalTime 	43
scalar IntersectionExampleScenario.node[21].veinsmobility 	stopTime 	82.75
scalar IntersectionExampleScenario.node[21].veinsmobility 	minSpeed 	5.6500000953674
scalar IntersectionExampleScenario.node[21].veinsmobility 	maxSpeed 	15.337754249573
scalar IntersectionExampleScenario.node[21].veinsmobility 	totalDistance 	545.81670400339
scalar IntersectionExampleScenario.node[21].veinsmobility 	totalCO2Emission 	130.77964747308
scalar IntersectionExampleScenario.node[17].appl 	VehicleRemoved 	0
scalar IntersectionExampleScenario.node[17].appl 	ArrivedAtDest 	1
scalar IntersectionExampleScenario.node[17].appl 	IntersectionEnterTime 	36.25
scalar IntersectionExampleScenario.node[17].appl 	IntersectionExitTime 	67.615781839093
scalar IntersectionExampleScenario.node[17].appl 	NumberOfCollisions 	0
scalar IntersectionExampleScenario.node[17].nic.phy80211p 	busyTime 	0
scalar IntersectionExampleScenario.node[17].nic.mac1609_4 	ReceivedUnicastPackets 	0
scalar IntersectionExampleScenario.node[17].nic.mac1609_4 	ReceivedBroadcasts 	0
scalar IntersectionExampleScenario.node[17].nic.mac1609_4 	SentPackets 	0
scalar IntersectionExampleScenario.node[17].nic.mac1609_4 	SNIRLostPackets 	0
scalar IntersectionExampleScenario.node[17].nic.mac1609_4 	RXTXLostPackets 	0
scalar IntersectionExampleScenario.node[17].nic.mac1609_4 	TotalLostPackets 	0
scalar IntersectionExampleScenario.node[17].nic.mac1609_4 	DroppedPacketsInMac 	0
scalar IntersectionExampleScenario.node[17].nic.mac1609_4 	TooLittleTime 	0
scalar IntersectionExampleScenario.node[17].nic.mac1609_4 	TimesIntoBackoff 	0
scalar IntersectionExampleScenario.node[17].nic.mac1609_4 	SlotsBackoff 	0
scalar IntersectionExampleScenario.node[17].nic.mac1609_4 	NumInternalContention 	0
scalar IntersectionExampleScenario.node[17].nic.mac1609_4 	totalBusyTime 	0
scalar IntersectionExampleScenario.node[17].veinsmobility 	startTime 	36.25
scalar IntersectionExampleScenario.node[17].veinsmobility 	totalTime 	48.25
scalar IntersectionExampleScenario.node[17].veinsmobility 	stopTime 	84.75
scalar IntersectionExampleScenario.node[17].veinsmobility 	minSpeed 	0
scalar IntersectionExampleScenario.node[17].veinsmobility 	maxSpeed 	15.25
scalar IntersectionExampleScenario.node[17].veinsmobility 	totalDistance 	545.0027074948
scalar IntersectionExampleScenario.node[17].veinsmobility 	totalCO2Emission 	138.18319151024
scalar IntersectionExampleScenario.node[19].appl 	VehicleRemoved 	0
scalar IntersectionExampleScenario.node[19].appl 	ArrivedAtDest 	1
scalar IntersectionExampleScenario.node[19].appl 	IntersectionEnterTime 	37
scalar IntersectionExampleScenario.node[19].appl 	IntersectionExitTime 	70.004040406639
scalar IntersectionExampleScenario.node[19].appl 	NumberOfCollisions 	0
scalar IntersectionExampleScenario.node[19].nic.phy80211p 	busyTime 	0
scalar IntersectionExampleScenario.node[19].nic.mac1609_4 	ReceivedUnicastPackets 	0
scalar IntersectionExampleScenario.node[19].nic.mac1609_4 	ReceivedBroadcasts 	0
scalar IntersectionExampleScenario.node[19].nic.mac1609_4 	SentPackets 	0
scalar IntersectionExampleScenario.node[19].nic.mac1609_4 	SNIRLostPackets 	0
scalar IntersectionExampleScenario.node[19].nic.mac1609_4 	RXTXLostPackets 	0
scalar IntersectionExampleScenario.node[19].nic.mac1609_4 	TotalLostPackets 	0
scalar IntersectionExampleScenario.node[19].nic.mac1609_4 	DroppedPacketsInMac 	0
scalar IntersectionExampleScenario.node[19].nic.mac1609_4 	TooLittleTime 	0
scalar IntersectionExampleScenario.node[19].nic.mac1609_4 	TimesIntoBackoff 	0
scalar IntersectionExampleScenario.node[19].nic.mac1609_4 	SlotsBackoff 	0
scalar IntersectionExampleScenario.node[19].nic.mac1609_4 	NumInternalContention 	0
scalar IntersectionExampleScenario.node[19].nic.mac1609_4 	totalBusyTime 	0
scalar IntersectionExampleScenario.node[19].veinsmobility 	startTime 	37
scalar IntersectionExampleScenario.node[19].veinsmobility 	totalTime 	50
scalar IntersectionExampleScenario.node[19].veinsmobility 	stopTime 	87.25
scalar IntersectionExampleScenario.node[19].veinsmobility 	minSpeed 	0
scalar IntersectionExampleScenario.node[19].veinsmobility 	maxSpeed 	15.25
scalar IntersectionExampleScenario.node[19].veinsmobility 	totalDistance 	568.9084238185
scalar IntersectionExampleScenario.node[19].veinsmobility 	totalCO2Emission 	141.70417679452
scalar IntersectionExampleScenario.node[25].appl 	VehicleRemoved 	0
scalar IntersectionExampleScenario.node[25].appl 	ArrivedAtDest 	1
scalar IntersectionExampleScenario.node[25].appl 	IntersectionEnterTime 	42.75
scalar IntersectionExampleScenario.node[25].appl 	IntersectionExitTime 	72.29769288766
scalar IntersectionExampleScenario.node[25].appl 	NumberOfCollisions 	0
scalar IntersectionExampleScenario.node[25].nic.phy80211p 	busyTime 	0
scalar IntersectionExampleScenario.node[25].nic.mac1609_4 	ReceivedUnicastPackets 	0
scalar IntersectionExampleScenario.node[25].nic.mac1609_4 	ReceivedBroadcasts 	0
scalar IntersectionExampleScenario.node[25].nic.mac1609_4 	SentPackets 	0
scalar IntersectionExampleScenario.node[25].nic.mac1609_4 	SNIRLostPackets 	0
scalar IntersectionExampleScenario.node[25].nic.mac1609_4 	RXTXLostPackets 	0
scalar IntersectionExampleScenario.node[25].nic.mac1609_4 	TotalLostPackets 	0
scalar IntersectionExampleScenario.node[25].nic.mac1609_4 	DroppedPacketsInMac 	0
scalar IntersectionExampleScenario.node[25].nic.mac1609_4 	TooLittleTime 	0
scalar IntersectionExampleScenario.node[25].nic.mac1609_4 	TimesIntoBackoff 	0
scalar IntersectionExampleScenario.node[25].nic.mac1609_4 	SlotsBackoff 	0
scalar IntersectionExampleScenario.node[25].nic.mac1609_4 	NumInternalContention 	0
scalar IntersectionExampleScenario.node[25].nic.mac1609_4 	totalBusyTime 	0
scalar IntersectionExampleScenario.node[25].veinsmobility 	startTime 	42.75
scalar IntersectionExampleScenario.node[25].veinsmobility 	totalTime 	45
scalar IntersectionExampleScenario.node[25].veinsmobility 	stopTime 	88
scalar IntersectionExampleScenario.node[25].veinsmobility 	minSpeed 	2.6670973300934
scalar IntersectionExampleScenario.node[25].veinsmobility 	maxSpeed 	16.625
scalar IntersectionExampleScenario.node[25].veinsmobility 	totalDistance 	556.61309506797
scalar IntersectionExampleScenario.node[25].veinsmobility 	totalCO2Emission 	144.41277146499
scalar IntersectionExampleScenario.node[30].appl 	VehicleRemoved 	0
scalar IntersectionExampleScenario.node[30].appl 	ArrivedAtDest 	1
scalar IntersectionExampleScenario.node[30].appl 	IntersectionEnterTime 	49
scalar IntersectionExampleScenario.node[30].appl 	IntersectionExitTime 	74.04413200455
scalar IntersectionExampleScenario.node[30].appl 	NumberOfCollisions 	0
scalar IntersectionExampleScenario.node[30].nic.phy80211p 	busyTime 	0
scalar IntersectionExampleScenario.node[30].nic.mac1609_4 	ReceivedUnicastPackets 	0
scalar IntersectionExampleScenario.node[30].nic.mac1609_4 	ReceivedBroadcasts 	0
scalar IntersectionExampleScenario.node[30].nic.mac1609_4 	SentPackets 	0
scalar IntersectionExampleScenario.node[30].nic.mac1609_4 	SNIRLostPackets 	0
scalar IntersectionExampleScenario.node[30].nic.mac1609_4 	RXTXLostPackets 	0
scalar IntersectionExampleScenario.node[30].nic.mac1609_4 	TotalLostPackets 	0
scalar IntersectionExampleScenario.node[30].nic.mac1609_4 	DroppedPacketsInMac 	0
scalar IntersectionExampleScenario.node[30].nic.mac1609_4 	TooLittleTime 	0
scalar IntersectionExampleScenario.node[30].nic.mac1609_4 	TimesIntoBackoff 	0
scalar IntersectionExampleScenario.node[30].nic.mac1609_4 	SlotsBackoff 	0
scalar IntersectionExampleScenario.node[30].nic.mac1609_4 	NumInternalContention 	0
scalar IntersectionExampleScenario.node[30].nic.mac1609_4 	totalBusyTime 	0
scalar IntersectionExampleScenario.node[30].veinsmobility 	startTime 	49
scalar IntersectionExampleScenario.node[30].veinsmobility 	totalTime 	40.5
scalar IntersectionExampleScenario.node[30].veinsmobility 	stopTime 	89.75
scalar IntersectionExampleScenario.node[30].veinsmobility 	minSpeed 	5.6500000953674
scalar IntersectionExampleScenario.node[30].veinsmobility 	maxSpeed 	16.27499961853
scalar IntersectionExampleScenario.node[30].veinsmobility 	totalDistance 	554.83950805664
scalar IntersectionExampleScenario.node[30].veinsmobility 	totalCO2Emission 	138.03084937961
scalar IntersectionExampleScenario.node[32].appl 	VehicleRemoved 	0
scalar IntersectionExampleScenario.node[32].appl 	ArrivedAtDest 	1
scalar IntersectionExampleScenario.node[32].appl 	IntersectionEnterTime 	53.5
scalar IntersectionExampleScenario.node[32].appl 	IntersectionExitTime 	76.80988430552
scalar IntersectionExampleScenario.node[32].appl 	NumberOfCollisions 	0
scalar IntersectionExampleScenario.node[32].nic.phy80211p 	busyTime 	0
scalar IntersectionExampleScenario.node[32].nic.mac1609_4 	ReceivedUnicastPackets 	0
scalar IntersectionExampleScenario.node[32].nic.mac1609_4 	ReceivedBroadcasts 	0
scalar IntersectionExampleScenario.node[32].nic.mac1609_4 	SentPackets 	0
scalar IntersectionExampleScenario.node[32].nic.mac1609_4 	SNIRLostPackets 	0
scalar IntersectionExampleScenario.node[32].nic.mac1609_4 	RXTXLostPackets 	0
scalar IntersectionExampleScenario.node[32].nic.mac1609_4 	TotalLostPackets 	0
scalar IntersectionExampleScenario.node[32].nic.mac1609_4 	DroppedPacketsInMac 	0
scalar IntersectionExampleScenario.node[32].nic.mac1609_4 	TooLittleTime 	0
scalar IntersectionExampleScenario.node[32].nic.mac1609_4 	TimesIntoBackoff 	0
scalar IntersectionExampleScenario.node[32].nic.mac1609_4 	SlotsBackoff 	0
scalar IntersectionExampleScenario.node[32].nic.mac1609_4 	NumInternalContention 	0
scalar IntersectionExampleScenario.node[32].nic.mac1609_4 	totalBusyTime 	0
scalar IntersectionExampleScenario.node[32].veinsmobility 	startTime 	53.5
scalar IntersectionExampleScenario.node[32].veinsmobility 	totalTime 	38.75
scalar IntersectionExampleScenario.node[32].veinsmobility 	stopTime 	92.5
scalar IntersectionExampleScenario.node[32].veinsmobility 	minSpeed 	5.6500000953674
scalar IntersectionExampleScenario.node[32].veinsmobility 	maxSpeed 	16.625
scalar IntersectionExampleScenario.node[32].veinsmobility 	totalDistance 	548.75720304873
scalar IntersectionExampleScenario.node[32].veinsmobility 	totalCO2Emission 	132.04725329222
scalar IntersectionExampleScenario.node[20].appl 	VehicleRemoved 	0
scalar IntersectionExampleScenario.node[20].appl 	ArrivedAtDest 	1
scalar IntersectionExampleScenario.node[20].appl 	IntersectionEnterTime 	38.5
scalar IntersectionExampleScenario.node[20].appl 	IntersectionExitTime 	78.29335409106
scalar IntersectionExampleScenario.node[20].appl 	NumberOfCollisions 	0
scalar IntersectionExampleScenario.node[20].nic.phy80211p 	busyTime 	0
scalar IntersectionExampleScenario.node[20].nic.mac1609_4 	ReceivedUnicastPackets 	0
scalar IntersectionExampleScenario.node[20].nic.mac1609_4 	ReceivedBroadcasts 	0
scalar IntersectionExampleScenario.node[20].nic.mac1609_4 	SentPackets 	0
scalar IntersectionExampleScenario.node[20].nic.mac1609_4 	SNIRLostPackets 	0
scalar IntersectionExampleScenario.node[20].nic.mac1609_4 	RXTXLostPackets 	0
scalar IntersectionExampleScenario.node[20].nic.mac1609_4 	TotalLostPackets 	0
scalar IntersectionExampleScenario.node[20].nic.mac1609_4 	DroppedPacketsInMac 	0
scalar IntersectionExampleScenario.node[20].nic.mac1609_4 	TooLittleTime 	0
scalar IntersectionExampleScenario.node[20].nic.mac1609_4 	TimesIntoBackoff 	0
scalar IntersectionExampleScenario.node[20].nic.mac1609_4 	SlotsBackoff 	0
scalar IntersectionExampleScenario.node[20].nic.mac1609_4 	NumInternalContention 	0
scalar IntersectionExampleScenario.node[20].nic.mac1609_4 	totalBusyTime 	0
scalar IntersectionExampleScenario.node[20].veinsmobility 	startTime 	38.5
scalar IntersectionExampleScenario.node[20].veinsmobility 	totalTime 	55.25
scalar IntersectionExampleScenario.node[20].veinsmobility 	stopTime 	94
scalar IntersectionExampleScenario.node[20].veinsmobility 	minSpeed 	0
scalar IntersectionExampleScenario.node[20].veinsmobility 	maxSpeed 	16
scalar IntersectionExampleScenario.node[20].veinsmobility 	totalDistance 	550.89945220947
scalar IntersectionExampleScenario.node[20].veinsmobility 	totalCO2Emission 	150.78143106623
scalar IntersectionExampleScenario.node[22].appl 	VehicleRemoved 	0
scalar IntersectionExampleScenario.node[22].appl 	ArrivedAtDest 	1
scalar IntersectionExampleScenario.node[22].appl 	IntersectionEnterTime 	39.75
scalar IntersectionExampleScenario.node[22].appl 	IntersectionExitTime 	86.857018931274
scalar IntersectionExampleScenario.node[22].appl 	NumberOfCollisions 	0
scalar IntersectionExampleScenario.node[22].nic.phy80211p 	busyTime 	0
scalar IntersectionExampleScenario.node[22].nic.mac1609_4 	ReceivedUnicastPackets 	0
scalar IntersectionExampleScenario.node[22].nic.mac1609_4 	ReceivedBroadcasts 	0
scalar IntersectionExampleScenario.node[22].nic.mac1609_4 	SentPackets 	0
scalar IntersectionExampleScenario.node[22].nic.mac1609_4 	SNIRLostPackets 	0
scalar IntersectionExampleScenario.node[22].nic.mac1609_4 	RXTXLostPackets 	0
scalar IntersectionExampleScenario.node[22].nic.mac1609_4 	TotalLostPackets 	0
scalar IntersectionExampleScenario.node[22].nic.mac1609_4 	DroppedPacketsInMac 	0
scalar IntersectionExampleScenario.node[22].nic.mac1609_4 	TooLittleTime 	0
scalar IntersectionExampleScenario.node[22].nic.mac1609_4 	TimesIntoBackoff 	0
scalar IntersectionExampleScenario.node[22].nic.mac1609_4 	SlotsBackoff 	0
scalar IntersectionExampleScenario.node[22].nic.mac1609_4 	NumInternalContention 	0
scalar IntersectionExampleScenario.node[22].nic.mac1609_4 	totalBusyTime 	0
scalar IntersectionExampleScenario.node[22].veinsmobility 	startTime 	39.75
scalar IntersectionExampleScenario.node[22].veinsmobility 	totalTime 	62.75
scalar IntersectionExampleScenario.node[22].veinsmobility 	stopTime 	102.75
scalar IntersectionExampleScenario.node[22].veinsmobility 	minSpeed 	0
scalar IntersectionExampleScenario.node[22].veinsmobility 	maxSpeed 	16
scalar IntersectionExampleScenario.node[22].veinsmobility 	totalDistance 	575.95481234026
scalar IntersectionExampleScenario.node[22].veinsmobility 	totalCO2Emission 	164.25421572556
scalar IntersectionExampleScenario.node[27].appl 	VehicleRemoved 	0
scalar IntersectionExampleScenario.node[27].appl 	ArrivedAtDest 	1
scalar IntersectionExampleScenario.node[27].appl 	IntersectionEnterTime 	46
scalar IntersectionExampleScenario.node[27].appl 	IntersectionExitTime 	87.278616946656
scalar IntersectionExampleScenario.node[27].appl 	NumberOfCollisions 	0
scalar IntersectionExampleScenario.node[27].nic.phy80211p 	busyTime 	0
scalar IntersectionExampleScenario.node[27].nic.mac1609_4 	ReceivedUnicastPackets 	0
scalar IntersectionExampleScenario.node[27].nic.mac1609_4 	ReceivedBroadcasts 	0
scalar IntersectionExampleScenario.node[27].nic.mac1609_4 	SentPackets 	0
scalar IntersectionExampleScenario.node[27].nic.mac1609_4 	SNIRLostPackets 	0
scalar IntersectionExampleScenario.node[27].nic.mac1609_4 	RXTXLostPackets 	0
scalar IntersectionExampleScenario.node[27].nic.mac1609_4 	TotalLostPackets 	0
scalar IntersectionExampleScenario.node[27].nic.mac1609_4 	DroppedPacketsInMac 	0
scalar IntersectionExampleScenario.node[27].nic.mac1609_4 	TooLittleTime 	0
scalar IntersectionExampleScenario.node[27].nic.mac1609_4 	TimesIntoBackoff 	0
scalar IntersectionExampleScenario.node[27].nic.mac1609_4 	SlotsBackoff 	0
scalar IntersectionExampleScenario.node[27].nic.mac1609_4 	NumInternalContention 	0
scalar IntersectionExampleScenario.node[27].nic.mac1609_4 	totalBusyTime 	0
scalar IntersectionExampleScenario.node[27].veinsmobility 	startTime 	46
scalar IntersectionExampleScenario.node[27].veinsmobility 	totalTime 	57
scalar IntersectionExampleScenario.node[27].veinsmobility 	stopTime 	103.25
scalar IntersectionExampleScenario.node[27].veinsmobility 	minSpeed 	0
scalar IntersectionExampleScenario.node[27].veinsmobility 	maxSpeed 	16
scalar IntersectionExampleScenario.node[27].veinsmobility 	totalDistance 	553.16080474854
scalar IntersectionExampleScenario.node[27].veinsmobility 	totalCO2Emission 	152.5863866399
scalar IntersectionExampleScenario.node[24].appl 	VehicleRemoved 	0
scalar IntersectionExampleScenario.node[24].appl 	ArrivedAtDest 	1
scalar IntersectionExampleScenario.node[24].appl 	IntersectionEnterTime 	41
scalar IntersectionExampleScenario.node[24].appl 	IntersectionExitTime 	88.290793199645
scalar IntersectionExampleScenario.node[24].appl 	NumberOfCollisions 	0
scalar IntersectionExampleScenario.node[24].nic.phy80211p 	busyTime 	0
scalar IntersectionExampleScenario.node[24].nic.mac1609_4 	ReceivedUnicastPackets 	0
scalar IntersectionExampleScenario.node[24].nic.mac1609_4 	ReceivedBroadcasts 	0
scalar IntersectionExampleScenario.node[24].nic.mac1609_4 	SentPackets 	0
scalar IntersectionExampleScenario.node[24].nic.mac1609_4 	SNIRLostPackets 	0
scalar IntersectionExampleScenario.node[24].nic.mac1609_4 	RXTXLostPackets 	0
scalar IntersectionExampleScenario.node[24].nic.mac1609_4 	TotalLostPackets 	0
scalar IntersectionExampleScenario.node[24].nic.mac1609_4 	DroppedPacketsInMac 	0
scalar IntersectionExampleScenario.node[24].nic.mac1609_4 	TooLittleTime 	0
scalar IntersectionExampleScenario.node[24].nic.mac1609_4 	TimesIntoBackoff 	0
scalar IntersectionExampleScenario.node[24].nic.mac1609_4 	SlotsBackoff 	0
scalar IntersectionExampleScenario.node[24].nic.mac1609_4 	NumInternalContention 	0
scalar IntersectionExampleScenario.node[24].nic.mac1609_4 	totalBusyTime 	0
scalar IntersectionExampleScenario.node[24].veinsmobility 	startTime 	41
scalar IntersectionExampleScenario.node[24].veinsmobility 	totalTime 	63.5
scalar IntersectionExampleScenario.node[24].veinsmobility 	stopTime 	104.75
scalar IntersectionExampleScenario.node[24].veinsmobility 	minSpeed 	0
scalar IntersectionExampleScenario.node[24].veinsmobility 	maxSpeed 	15.5
scalar IntersectionExampleScenario.node[24].veinsmobility 	totalDistance 	585.97361755371
scalar IntersectionExampleScenario.node[24].veinsmobility 	totalCO2Emission 	156.11415855858
scalar IntersectionExampleScenario.node[31].appl 	VehicleRemoved 	0
scalar IntersectionExampleScenario.node[31].appl 	ArrivedAtDest 	1
scalar IntersectionExampleScenario.node[31].appl 	IntersectionEnterTime 	49.5
scalar IntersectionExampleScenario.node[31].appl 	IntersectionExitTime 	88.305786309269
scalar IntersectionExampleScenario.node[31].appl 	NumberOfCollisions 	0
scalar IntersectionExampleScenario.node[31].nic.phy80211p 	busyTime 	0
scalar IntersectionExampleScenario.node[31].nic.mac1609_4 	ReceivedUnicastPackets 	0
scalar IntersectionExampleScenario.node[31].nic.mac1609_4 	ReceivedBroadcasts 	0
scalar IntersectionExampleScenario.node[31].nic.mac1609_4 	SentPackets 	0
scalar IntersectionExampleScenario.node[31].nic.mac1609_4 	SNIRLostPackets 	0
scalar IntersectionExampleScenario.node[31].nic.mac1609_4 	RXTXLostPackets 	0
scalar IntersectionExampleScenario.node[31].nic.mac1609_4 	TotalLostPackets 	0
scalar IntersectionExampleScenario.node[31].nic.mac1609_4 	DroppedPacketsInMac 	0
scalar IntersectionExampleScenario.node[31].nic.mac1609_4 	TooLittleTime 	0
scalar IntersectionExampleScenario.node[31].nic.mac1609_4 	TimesIntoBackoff 	0
scalar IntersectionExampleScenario.node[31].nic.mac1609_4 	SlotsBackoff 	0
scalar IntersectionExampleScenario.node[31].nic.mac1609_4 	NumInternalContention 	0
scalar IntersectionExampleScenario.node[31].nic.mac1609_4 	totalBusyTime 	0
scalar IntersectionExampleScenario.node[31].veinsmobility 	startTime 	49.5
scalar IntersectionExampleScenario.node[31].veinsmobility 	totalTime 	56.25
scalar IntersectionExampleScenario.node[31].veinsmobility 	stopTime 	106
scalar IntersectionExampleScenario.node[31].veinsmobility 	minSpeed 	0
scalar IntersectionExampleScenario.node[31].veinsmobility 	maxSpeed 	15.02499961853
scalar IntersectionExampleScenario.node[31].veinsmobility 	totalDistance 	556.20936223628
scalar IntersectionExampleScenario.node[31].veinsmobility 	totalCO2Emission 	142.79349038166
scalar IntersectionExampleScenario.node[36].appl 	VehicleRemoved 	0
scalar IntersectionExampleScenario.node[36].appl 	ArrivedAtDest 	1
scalar IntersectionExampleScenario.node[36].appl 	IntersectionEnterTime 	62.75
scalar IntersectionExampleScenario.node[36].appl 	IntersectionExitTime 	90.019721474382
scalar IntersectionExampleScenario.node[36].appl 	NumberOfCollisions 	0
scalar IntersectionExampleScenario.node[36].nic.phy80211p 	busyTime 	0
scalar IntersectionExampleScenario.node[36].nic.mac1609_4 	ReceivedUnicastPackets 	0
scalar IntersectionExampleScenario.node[36].nic.mac1609_4 	ReceivedBroadcasts 	0
scalar IntersectionExampleScenario.node[36].nic.mac1609_4 	SentPackets 	0
scalar IntersectionExampleScenario.node[36].nic.mac1609_4 	SNIRLostPackets 	0
scalar IntersectionExampleScenario.node[36].nic.mac1609_4 	RXTXLostPackets 	0
scalar IntersectionExampleScenario.node[36].nic.mac1609_4 	TotalLostPackets 	0
scalar IntersectionExampleScenario.node[36].nic.mac1609_4 	DroppedPacketsInMac 	0
scalar IntersectionExampleScenario.node[36].nic.mac1609_4 	TooLittleTime 	0
scalar IntersectionExampleScenario.node[36].nic.mac1609_4 	TimesIntoBackoff 	0
scalar IntersectionExampleScenario.node[36].nic.mac1609_4 	SlotsBackoff 	0
scalar IntersectionExampleScenario.node[36].nic.mac1609_4 	NumInternalContention 	0
scalar IntersectionExampleScenario.node[36].nic.mac1609_4 	totalBusyTime 	0
scalar IntersectionExampleScenario.node[36].veinsmobility 	startTime 	62.75
scalar IntersectionExampleScenario.node[36].veinsmobility 	totalTime 	43.5
scalar IntersectionExampleScenario.node[36].veinsmobility 	stopTime 	106.5
scalar IntersectionExampleScenario.node[36].veinsmobility 	minSpeed 	5.2820925712585
scalar IntersectionExampleScenario.node[36].veinsmobility 	maxSpeed 	15.02499961853
scalar IntersectionExampleScenario.node[36].veinsmobility 	totalDistance 	550.95066070557
scalar IntersectionExampleScenario.node[36].veinsmobility 	totalCO2Emission 	127.73454462121
scalar IntersectionExampleScenario.node[29].appl 	VehicleRemoved 	0
scalar IntersectionExampleScenario.node[29].appl 	ArrivedAtDest 	1
scalar IntersectionExampleScenario.node[29].appl 	IntersectionEnterTime 	48.75
scalar IntersectionExampleScenario.node[29].appl 	IntersectionExitTime 	90.790038689447
scalar IntersectionExampleScenario.node[29].appl 	NumberOfCollisions 	0
scalar IntersectionExampleScenario.node[29].nic.phy80211p 	busyTime 	0
scalar IntersectionExampleScenario.node[29].nic.mac1609_4 	ReceivedUnicastPackets 	0
scalar IntersectionExampleScenario.node[29].nic.mac1609_4 	ReceivedBroadcasts 	0
scalar IntersectionExampleScenario.node[29].nic.mac1609_4 	SentPackets 	0
scalar IntersectionExampleScenario.node[29].nic.mac1609_4 	SNIRLostPackets 	0
scalar IntersectionExampleScenario.node[29].nic.mac1609_4 	RXTXLostPackets 	0
scalar IntersectionExampleScenario.node[29].nic.mac1609_4 	TotalLostPackets 	0
scalar IntersectionExampleScenario.node[29].nic.mac1609_4 	DroppedPacketsInMac 	0
scalar IntersectionExampleScenario.node[29].nic.mac1609_4 	TooLittleTime 	0
scalar IntersectionExampleScenario.node[29].nic.mac1609_4 	TimesIntoBackoff 	0
scalar IntersectionExampleScenario.node[29].nic.mac1609_4 	SlotsBackoff 	0
scalar IntersectionExampleScenario.node[29].nic.mac1609_4 	NumInternalContention 	0
scalar IntersectionExampleScenario.node[29].nic.mac1609_4 	totalBusyTime 	0
scalar IntersectionExampleScenario.node[29].veinsmobility 	startTime 	48.75
scalar IntersectionExampleScenario.node[29].veinsmobility 	totalTime 	58
scalar IntersectionExampleScenario.node[29].veinsmobility 	stopTime 	107
scalar IntersectionExampleScenario.node[29].veinsmobility 	minSpeed 	-1.4076714515686
scalar IntersectionExampleScenario.node[29].veinsmobility 	maxSpeed 	15.988510131836
scalar IntersectionExampleScenario.node[29].veinsmobility 	totalDistance 	529.42979509425
scalar IntersectionExampleScenario.node[29].veinsmobility 	totalCO2Emission 	153.53626551485
scalar IntersectionExampleScenario.node[26].appl 	VehicleRemoved 	0
scalar IntersectionExampleScenario.node[26].appl 	ArrivedAtDest 	1
scalar IntersectionExampleScenario.node[26].appl 	IntersectionEnterTime 	45.75
scalar IntersectionExampleScenario.node[26].appl 	IntersectionExitTime 	92.8000724226
scalar IntersectionExampleScenario.node[26].appl 	NumberOfCollisions 	0
scalar IntersectionExampleScenario.node[26].nic.phy80211p 	busyTime 	0
scalar IntersectionExampleScenario.node[26].nic.mac1609_4 	ReceivedUnicastPackets 	0
scalar IntersectionExampleScenario.node[26].nic.mac1609_4 	ReceivedBroadcasts 	0
scalar IntersectionExampleScenario.node[26].nic.mac1609_4 	SentPackets 	0
scalar IntersectionExampleScenario.node[26].nic.mac1609_4 	SNIRLostPackets 	0
scalar IntersectionExampleScenario.node[26].nic.mac1609_4 	RXTXLostPackets 	0
scalar IntersectionExampleScenario.node[26].nic.mac1609_4 	TotalLostPackets 	0
scalar IntersectionExampleScenario.node[26].nic.mac1609_4 	DroppedPacketsInMac 	0
scalar IntersectionExampleScenario.node[26].nic.mac1609_4 	TooLittleTime 	0
scalar IntersectionExampleScenario.node[26].nic.mac1609_4 	TimesIntoBackoff 	0
scalar IntersectionExampleScenario.node[26].nic.mac1609_4 	SlotsBackoff 	0
scalar IntersectionExampleScenario.node[26].nic.mac1609_4 	NumInternalContention 	0
scalar IntersectionExampleScenario.node[26].nic.mac1609_4 	totalBusyTime 	0
scalar IntersectionExampleScenario.node[26].veinsmobility 	startTime 	45.75
scalar IntersectionExampleScenario.node[26].veinsmobility 	totalTime 	64
scalar IntersectionExampleScenario.node[26].veinsmobility 	stopTime 	110
scalar IntersectionExampleScenario.node[26].veinsmobility 	minSpeed 	0
scalar IntersectionExampleScenario.node[26].veinsmobility 	maxSpeed 	14.888339042664
scalar IntersectionExampleScenario.node[26].veinsmobility 	totalDistance 	575.13030775614
scalar IntersectionExampleScenario.node[26].veinsmobility 	totalCO2Emission 	163.18070882925
scalar IntersectionExampleScenario.node[41].appl 	VehicleRemoved 	0
scalar IntersectionExampleScenario.node[41].appl 	ArrivedAtDest 	1
scalar IntersectionExampleScenario.node[41].appl 	IntersectionEnterTime 	70.75
scalar IntersectionExampleScenario.node[41].appl 	IntersectionExitTime 	94.837553955818
scalar IntersectionExampleScenario.node[41].appl 	NumberOfCollisions 	0
scalar IntersectionExampleScenario.node[41].nic.phy80211p 	busyTime 	0
scalar IntersectionExampleScenario.node[41].nic.mac1609_4 	ReceivedUnicastPackets 	0
scalar IntersectionExampleScenario.node[41].nic.mac1609_4 	ReceivedBroadcasts 	0
scalar IntersectionExampleScenario.node[41].nic.mac1609_4 	SentPackets 	0
scalar IntersectionExampleScenario.node[41].nic.mac1609_4 	SNIRLostPackets 	0
scalar IntersectionExampleScenario.node[41].nic.mac1609_4 	RXTXLostPackets 	0
scalar IntersectionExampleScenario.node[41].nic.mac1609_4 	TotalLostPackets 	0
scalar IntersectionExampleScenario.node[41].nic.mac1609_4 	DroppedPacketsInMac 	0
scalar IntersectionExampleScenario.node[41].nic.mac1609_4 	TooLittleTime 	0
scalar IntersectionExampleScenario.node[41].nic.mac1609_4 	TimesIntoBackoff 	0
scalar IntersectionExampleScenario.node[41].nic.mac1609_4 	SlotsBackoff 	0
scalar IntersectionExampleScenario.node[41].nic.mac1609_4 	NumInternalContention 	0
scalar IntersectionExampleScenario.node[41].nic.mac1609_4 	totalBusyTime 	0
scalar IntersectionExampleScenario.node[41].veinsmobility 	startTime 	70.75
scalar IntersectionExampleScenario.node[41].veinsmobility 	totalTime 	40.5
scalar IntersectionExampleScenario.node[41].veinsmobility 	stopTime 	111.5
scalar IntersectionExampleScenario.node[41].veinsmobility 	minSpeed 	5.6500000953674
scalar IntersectionExampleScenario.node[41].veinsmobility 	maxSpeed 	15.887882232666
scalar IntersectionExampleScenario.node[41].veinsmobility 	totalDistance 	543.87119216049
scalar IntersectionExampleScenario.node[41].veinsmobility 	totalCO2Emission 	136.41770891172
scalar IntersectionExampleScenario.node[28].appl 	VehicleRemoved 	0
scalar IntersectionExampleScenario.node[28].appl 	ArrivedAtDest 	1
scalar IntersectionExampleScenario.node[28].appl 	IntersectionEnterTime 	47.25
scalar IntersectionExampleScenario.node[28].appl 	IntersectionExitTime 	95.366258159163
scalar IntersectionExampleScenario.node[28].appl 	NumberOfCollisions 	0
scalar IntersectionExampleScenario.node[28].nic.phy80211p 	busyTime 	0
scalar IntersectionExampleScenario.node[28].nic.mac1609_4 	ReceivedUnicastPackets 	0
scalar IntersectionExampleScenario.node[28].nic.mac1609_4 	ReceivedBroadcasts 	0
scalar IntersectionExampleScenario.node[28].nic.mac1609_4 	SentPackets 	0
scalar IntersectionExampleScenario.node[28].nic.mac1609_4 	SNIRLostPackets 	0
scalar IntersectionExampleScenario.node[28].nic.mac1609_4 	RXTXLostPackets 	0
scalar IntersectionExampleScenario.node[28].nic.mac1609_4 	TotalLostPackets 	0
scalar IntersectionExampleScenario.node[28].nic.mac1609_4 	DroppedPacketsInMac 	0
scalar IntersectionExampleScenario.node[28].nic.mac1609_4 	TooLittleTime 	0
scalar IntersectionExampleScenario.node[28].nic.mac1609_4 	TimesIntoBackoff 	0
scalar IntersectionExampleScenario.node[28].nic.mac1609_4 	SlotsBackoff 	0
scalar IntersectionExampleScenario.node[28].nic.mac1609_4 	NumInternalContention 	0
scalar IntersectionExampleScenario.node[28].nic.mac1609_4 	totalBusyTime 	0
scalar IntersectionExampleScenario.node[28].veinsmobility 	startTime 	47.25
scalar IntersectionExampleScenario.node[28].veinsmobility 	totalTime 	65.5
scalar IntersectionExampleScenario.node[28].veinsmobility 	stopTime 	113
scalar IntersectionExampleScenario.node[28].veinsmobility 	minSpeed 	0
scalar IntersectionExampleScenario.node[28].veinsmobility 	maxSpeed 	14.827201843262
scalar IntersectionExampleScenario.node[28].veinsmobility 	totalDistance 	577.73204501405
scalar IntersectionExampleScenario.node[28].veinsmobility 	totalCO2Emission 	159.80451819709
scalar IntersectionExampleScenario.node[37].appl 	VehicleRemoved 	0
scalar IntersectionExampleScenario.node[37].appl 	ArrivedAtDest 	1
scalar IntersectionExampleScenario.node[37].appl 	IntersectionEnterTime 	63.25
scalar IntersectionExampleScenario.node[37].appl 	IntersectionExitTime 	97.312837414211
scalar IntersectionExampleScenario.node[37].appl 	NumberOfCollisions 	0
scalar IntersectionExampleScenario.node[37].nic.phy80211p 	busyTime 	0
scalar IntersectionExampleScenario.node[37].nic.mac1609_4 	ReceivedUnicastPackets 	0
scalar IntersectionExampleScenario.node[37].nic.mac1609_4 	ReceivedBroadcasts 	0
scalar IntersectionExampleScenario.node[37].nic.mac1609_4 	SentPackets 	0
scalar IntersectionExampleScenario.node[37].nic.mac1609_4 	SNIRLostPackets 	0
scalar IntersectionExampleScenario.node[37].nic.mac1609_4 	RXTXLostPackets 	0
scalar IntersectionExampleScenario.node[37].nic.mac1609_4 	TotalLostPackets 	0
scalar IntersectionExampleScenario.node[37].nic.mac1609_4 	DroppedPacketsInMac 	0
scalar IntersectionExampleScenario.node[37].nic.mac1609_4 	TooLittleTime 	0
scalar IntersectionExampleScenario.node[37].nic.mac1609_4 	TimesIntoBackoff 	0
scalar IntersectionExampleScenario.node[37].nic.mac1609_4 	SlotsBackoff 	0
scalar IntersectionExampleScenario.node[37].nic.mac1609_4 	NumInternalContention 	0
scalar IntersectionExampleScenario.node[37].nic.mac1609_4 	totalBusyTime 	0
scalar IntersectionExampleScenario.node[37].veinsmobility 	startTime 	63.25
scalar IntersectionExampleScenario.node[37].veinsmobility 	totalTime 	50.5
scalar IntersectionExampleScenario.node[37].veinsmobility 	stopTime 	114
scalar IntersectionExampleScenario.node[37].veinsmobility 	minSpeed 	2.0526421070099
scalar IntersectionExampleScenario.node[37].veinsmobility 	maxSpeed 	16.27499961853
scalar IntersectionExampleScenario.node[37].veinsmobility 	totalDistance 	542.86768022547
scalar IntersectionExampleScenario.node[37].veinsmobility 	totalCO2Emission 	148.23755509406
scalar IntersectionExampleScenario.node[33].appl 	VehicleRemoved 	0
scalar IntersectionExampleScenario.node[33].appl 	ArrivedAtDest 	1
scalar IntersectionExampleScenario.node[33].appl 	IntersectionEnterTime 	54.5
scalar IntersectionExampleScenario.node[33].appl 	IntersectionExitTime 	99.5030739012
scalar IntersectionExampleScenario.node[33].appl 	NumberOfCollisions 	0
scalar IntersectionExampleScenario.node[33].nic.phy80211p 	busyTime 	0
scalar IntersectionExampleScenario.node[33].nic.mac1609_4 	ReceivedUnicastPackets 	0
scalar IntersectionExampleScenario.node[33].nic.mac1609_4 	ReceivedBroadcasts 	0
scalar IntersectionExampleScenario.node[33].nic.mac1609_4 	SentPackets 	0
scalar IntersectionExampleScenario.node[33].nic.mac1609_4 	SNIRLostPackets 	0
scalar IntersectionExampleScenario.node[33].nic.mac1609_4 	RXTXLostPackets 	0
scalar IntersectionExampleScenario.node[33].nic.mac1609_4 	TotalLostPackets 	0
scalar IntersectionExampleScenario.node[33].nic.mac1609_4 	DroppedPacketsInMac 	0
scalar IntersectionExampleScenario.node[33].nic.mac1609_4 	TooLittleTime 	0
scalar IntersectionExampleScenario.node[33].nic.mac1609_4 	TimesIntoBackoff 	0
scalar IntersectionExampleScenario.node[33].nic.mac1609_4 	SlotsBackoff 	0
scalar IntersectionExampleScenario.node[33].nic.mac1609_4 	NumInternalContention 	0
scalar IntersectionExampleScenario.node[33].nic.mac1609_4 	totalBusyTime 	0
scalar IntersectionExampleScenario.node[33].veinsmobility 	startTime 	54.5
scalar IntersectionExampleScenario.node[33].veinsmobility 	totalTime 	61.5
scalar IntersectionExampleScenario.node[33].veinsmobility 	stopTime 	116.25
scalar IntersectionExampleScenario.node[33].veinsmobility 	minSpeed 	0
scalar IntersectionExampleScenario.node[33].veinsmobility 	maxSpeed 	15.875
scalar IntersectionExampleScenario.node[33].veinsmobility 	totalDistance 	567.51578427703
scalar IntersectionExampleScenario.node[33].veinsmobility 	totalCO2Emission 	158.26605990334
scalar IntersectionExampleScenario.node[34].appl 	VehicleRemoved 	0
scalar IntersectionExampleScenario.node[34].appl 	ArrivedAtDest 	1
scalar IntersectionExampleScenario.node[34].appl 	IntersectionEnterTime 	56.75
scalar IntersectionExampleScenario.node[34].appl 	IntersectionExitTime 	101.36897531105
scalar IntersectionExampleScenario.node[34].appl 	NumberOfCollisions 	0
scalar IntersectionExampleScenario.node[34].nic.phy80211p 	busyTime 	0
scalar IntersectionExampleScenario.node[34].nic.mac1609_4 	ReceivedUnicastPackets 	0
scalar IntersectionExampleScenario.node[34].nic.mac1609_4 	ReceivedBroadcasts 	0
scalar IntersectionExampleScenario.node[34].nic.mac1609_4 	SentPackets 	0
scalar IntersectionExampleScenario.node[34].nic.mac1609_4 	SNIRLostPackets 	0
scalar IntersectionExampleScenario.node[34].nic.mac1609_4 	RXTXLostPackets 	0
scalar IntersectionExampleScenario.node[34].nic.mac1609_4 	TotalLostPackets 	0
scalar IntersectionExampleScenario.node[34].nic.mac1609_4 	DroppedPacketsInMac 	0
scalar IntersectionExampleScenario.node[34].nic.mac1609_4 	TooLittleTime 	0
scalar IntersectionExampleScenario.node[34].nic.mac1609_4 	TimesIntoBackoff 	0
scalar IntersectionExampleScenario.node[34].nic.mac1609_4 	SlotsBackoff 	0
scalar IntersectionExampleScenario.node[34].nic.mac1609_4 	NumInternalContention 	0
scalar IntersectionExampleScenario.node[34].nic.mac1609_4 	totalBusyTime 	0
scalar IntersectionExampleScenario.node[34].veinsmobility 	startTime 	56.75
scalar IntersectionExampleScenario.node[34].veinsmobility 	totalTime 	60.25
scalar IntersectionExampleScenario.node[34].veinsmobility 	stopTime 	117.25
scalar IntersectionExampleScenario.node[34].veinsmobility 	minSpeed 	0
scalar IntersectionExampleScenario.node[34].veinsmobility 	maxSpeed 	15.64999961853
scalar IntersectionExampleScenario.node[34].veinsmobility 	totalDistance 	580.75413513184
scalar IntersectionExampleScenario.node[34].veinsmobility 	totalCO2Emission 	158.68329506358
scalar IntersectionExampleScenario.node[35].appl 	VehicleRemoved 	0
scalar IntersectionExampleScenario.node[35].appl 	ArrivedAtDest 	1
scalar IntersectionExampleScenario.node[35].appl 	IntersectionEnterTime 	61.75
scalar IntersectionExampleScenario.node[35].appl 	IntersectionExitTime 	103.57710639198
scalar IntersectionExampleScenario.node[35].appl 	NumberOfCollisions 	0
scalar IntersectionExampleScenario.node[35].nic.phy80211p 	busyTime 	0
scalar IntersectionExampleScenario.node[35].nic.mac1609_4 	ReceivedUnicastPackets 	0
scalar IntersectionExampleScenario.node[35].nic.mac1609_4 	ReceivedBroadcasts 	0
scalar IntersectionExampleScenario.node[35].nic.mac1609_4 	SentPackets 	0
scalar IntersectionExampleScenario.node[35].nic.mac1609_4 	SNIRLostPackets 	0
scalar IntersectionExampleScenario.node[35].nic.mac1609_4 	RXTXLostPackets 	0
scalar IntersectionExampleScenario.node[35].nic.mac1609_4 	TotalLostPackets 	0
scalar IntersectionExampleScenario.node[35].nic.mac1609_4 	DroppedPacketsInMac 	0
scalar IntersectionExampleScenario.node[35].nic.mac1609_4 	TooLittleTime 	0
scalar IntersectionExampleScenario.node[35].nic.mac1609_4 	TimesIntoBackoff 	0
scalar IntersectionExampleScenario.node[35].nic.mac1609_4 	SlotsBackoff 	0
scalar IntersectionExampleScenario.node[35].nic.mac1609_4 	NumInternalContention 	0
scalar IntersectionExampleScenario.node[35].nic.mac1609_4 	totalBusyTime 	0
scalar IntersectionExampleScenario.node[35].veinsmobility 	startTime 	61.75
scalar IntersectionExampleScenario.node[35].veinsmobility 	totalTime 	57.5
scalar IntersectionExampleScenario.node[35].veinsmobility 	stopTime 	119.5
scalar IntersectionExampleScenario.node[35].veinsmobility 	minSpeed 	0
scalar IntersectionExampleScenario.node[35].veinsmobility 	maxSpeed 	16.010820388794
scalar IntersectionExampleScenario.node[35].veinsmobility 	totalDistance 	563.8680631611
scalar IntersectionExampleScenario.node[35].veinsmobility 	totalCO2Emission 	155.29356406517
scalar IntersectionExampleScenario.node[39].appl 	VehicleRemoved 	0
scalar IntersectionExampleScenario.node[39].appl 	ArrivedAtDest 	1
scalar IntersectionExampleScenario.node[39].appl 	IntersectionEnterTime 	66.75
scalar IntersectionExampleScenario.node[39].appl 	IntersectionExitTime 	106.0730966721
scalar IntersectionExampleScenario.node[39].appl 	NumberOfCollisions 	0
scalar IntersectionExampleScenario.node[39].nic.phy80211p 	busyTime 	0
scalar IntersectionExampleScenario.node[39].nic.mac1609_4 	ReceivedUnicastPackets 	0
scalar IntersectionExampleScenario.node[39].nic.mac1609_4 	ReceivedBroadcasts 	0
scalar IntersectionExampleScenario.node[39].nic.mac1609_4 	SentPackets 	0
scalar IntersectionExampleScenario.node[39].nic.mac1609_4 	SNIRLostPackets 	0
scalar IntersectionExampleScenario.node[39].nic.mac1609_4 	RXTXLostPackets 	0
scalar IntersectionExampleScenario.node[39].nic.mac1609_4 	TotalLostPackets 	0
scalar IntersectionExampleScenario.node[39].nic.mac1609_4 	DroppedPacketsInMac 	0
scalar IntersectionExampleScenario.node[39].nic.mac1609_4 	TooLittleTime 	0
scalar IntersectionExampleScenario.node[39].nic.mac1609_4 	TimesIntoBackoff 	0
scalar IntersectionExampleScenario.node[39].nic.mac1609_4 	SlotsBackoff 	0
[...]
scalar IntersectionExampleScenario.node[776].veinsmobility 	totalCO2Emission 	57.403104896678
scalar IntersectionExampleScenario.node[777].appl 	VehicleRemoved 	0
scalar IntersectionExampleScenario.node[777].appl 	ArrivedAtDest 	0
scalar IntersectionExampleScenario.node[777].appl 	IntersectionEnterTime 	1787
scalar IntersectionExampleScenario.node[777].appl 	IntersectionExitTime 	-1
scalar IntersectionExampleScenario.node[777].appl 	NumberOfCollisions 	0
scalar IntersectionExampleScenario.node[777].nic.phy80211p 	busyTime 	0
scalar IntersectionExampleScenario.node[777].nic.mac1609_4 	ReceivedUnicastPackets 	0
scalar IntersectionExampleScenario.node[777].nic.mac1609_4 	ReceivedBroadcasts 	0
scalar IntersectionExampleScenario.node[777].nic.mac1609_4 	SentPackets 	0
scalar IntersectionExampleScenario.node[777].nic.mac1609_4 	SNIRLostPackets 	0
scalar IntersectionExampleScenario.node[777].nic.mac1609_4 	RXTXLostPackets 	0
scalar IntersectionExampleScenario.node[777].nic.mac1609_4 	TotalLostPackets 	0
scalar IntersectionExampleScenario.node[777].nic.mac1609_4 	DroppedPacketsInMac 	0
scalar IntersectionExampleScenario.node[777].nic.mac1609_4 	TooLittleTime 	0
scalar IntersectionExampleScenario.node[777].nic.mac1609_4 	TimesIntoBackoff 	0
scalar IntersectionExampleScenario.node[777].nic.mac1609_4 	SlotsBackoff 	0
scalar IntersectionExampleScenario.node[777].nic.mac1609_4 	NumInternalContention 	0
scalar IntersectionExampleScenario.node[777].nic.mac1609_4 	totalBusyTime 	0
scalar IntersectionExampleScenario.node[777].veinsmobility 	startTime 	1787
scalar IntersectionExampleScenario.node[777].veinsmobility 	totalTime 	13
scalar IntersectionExampleScenario.node[777].veinsmobility 	stopTime 	1800
scalar IntersectionExampleScenario.node[777].veinsmobility 	minSpeed 	5.6500000953674
scalar IntersectionExampleScenario.node[777].veinsmobility 	maxSpeed 	15.64999961853
scalar IntersectionExampleScenario.node[777].veinsmobility 	totalDistance 	178.67294311523
scalar IntersectionExampleScenario.node[777].veinsmobility 	totalCO2Emission 	52.048999868922
scalar IntersectionExampleScenario.node[778].appl 	VehicleRemoved 	0
scalar IntersectionExampleScenario.node[778].appl 	ArrivedAtDest 	0
scalar IntersectionExampleScenario.node[778].appl 	IntersectionEnterTime 	1787.75
scalar IntersectionExampleScenario.node[778].appl 	IntersectionExitTime 	-1
scalar IntersectionExampleScenario.node[778].appl 	NumberOfCollisions 	0
scalar IntersectionExampleScenario.node[778].nic.phy80211p 	busyTime 	0
scalar IntersectionExampleScenario.node[778].nic.mac1609_4 	ReceivedUnicastPackets 	0
scalar IntersectionExampleScenario.node[778].nic.mac1609_4 	ReceivedBroadcasts 	0
scalar IntersectionExampleScenario.node[778].nic.mac1609_4 	SentPackets 	0
scalar IntersectionExampleScenario.node[778].nic.mac1609_4 	SNIRLostPackets 	0
scalar IntersectionExampleScenario.node[778].nic.mac1609_4 	RXTXLostPackets 	0
scalar IntersectionExampleScenario.node[778].nic.mac1609_4 	TotalLostPackets 	0
scalar IntersectionExampleScenario.node[778].nic.mac1609_4 	DroppedPacketsInMac 	0
scalar IntersectionExampleScenario.node[778].nic.mac1609_4 	TooLittleTime 	0
scalar IntersectionExampleScenario.node[778].nic.mac1609_4 	TimesIntoBackoff 	0
scalar IntersectionExampleScenario.node[778].nic.mac1609_4 	SlotsBackoff 	0
scalar IntersectionExampleScenario.node[778].nic.mac1609_4 	NumInternalContention 	0
scalar IntersectionExampleScenario.node[778].nic.mac1609_4 	totalBusyTime 	0
scalar IntersectionExampleScenario.node[778].veinsmobility 	startTime 	1787.75
scalar IntersectionExampleScenario.node[778].veinsmobility 	totalTime 	12.25
scalar IntersectionExampleScenario.node[778].veinsmobility 	stopTime 	1800
scalar IntersectionExampleScenario.node[778].veinsmobility 	minSpeed 	5.6500000953674
scalar IntersectionExampleScenario.node[778].veinsmobility 	maxSpeed 	15.02499961853
scalar IntersectionExampleScenario.node[778].veinsmobility 	totalDistance 	162.78137969971
scalar IntersectionExampleScenario.node[778].veinsmobility 	totalCO2Emission 	47.613772116433
scalar IntersectionExampleScenario.node[779].appl 	VehicleRemoved 	0
scalar IntersectionExampleScenario.node[779].appl 	ArrivedAtDest 	0
scalar IntersectionExampleScenario.node[779].appl 	IntersectionEnterTime 	1790.25
scalar IntersectionExampleScenario.node[779].appl 	IntersectionExitTime 	-1
scalar IntersectionExampleScenario.node[779].appl 	NumberOfCollisions 	0
scalar IntersectionExampleScenario.node[779].nic.phy80211p 	busyTime 	0
scalar IntersectionExampleScenario.node[779].nic.mac1609_4 	ReceivedUnicastPackets 	0
scalar IntersectionExampleScenario.node[779].nic.mac1609_4 	ReceivedBroadcasts 	0
scalar IntersectionExampleScenario.node[779].nic.mac1609_4 	SentPackets 	0
scalar IntersectionExampleScenario.node[779].nic.mac1609_4 	SNIRLostPackets 	0
scalar IntersectionExampleScenario.node[779].nic.mac1609_4 	RXTXLostPackets 	0
scalar IntersectionExampleScenario.node[779].nic.mac1609_4 	TotalLostPackets 	0
scalar IntersectionExampleScenario.node[779].nic.mac1609_4 	DroppedPacketsInMac 	0
scalar IntersectionExampleScenario.node[779].nic.mac1609_4 	TooLittleTime 	0
scalar IntersectionExampleScenario.node[779].nic.mac1609_4 	TimesIntoBackoff 	0
scalar IntersectionExampleScenario.node[779].nic.mac1609_4 	SlotsBackoff 	0
scalar IntersectionExampleScenario.node[779].nic.mac1609_4 	NumInternalContention 	0
scalar IntersectionExampleScenario.node[779].nic.mac1609_4 	totalBusyTime 	0
scalar IntersectionExampleScenario.node[779].veinsmobility 	startTime 	1790.25
scalar IntersectionExampleScenario.node[779].veinsmobility 	totalTime 	9.75
scalar IntersectionExampleScenario.node[779].veinsmobility 	stopTime 	1800
scalar IntersectionExampleScenario.node[779].veinsmobility 	minSpeed 	5.6500000953674
scalar IntersectionExampleScenario.node[779].veinsmobility 	maxSpeed 	16.021507263184
scalar IntersectionExampleScenario.node[779].veinsmobility 	totalDistance 	114.76928710938
scalar IntersectionExampleScenario.node[779].veinsmobility 	totalCO2Emission 	47.039175440919
scalar IntersectionExampleScenario.node[780].appl 	VehicleRemoved 	0
scalar IntersectionExampleScenario.node[780].appl 	ArrivedAtDest 	0
scalar IntersectionExampleScenario.node[780].appl 	IntersectionEnterTime 	1791.75
scalar IntersectionExampleScenario.node[780].appl 	IntersectionExitTime 	-1
scalar IntersectionExampleScenario.node[780].appl 	NumberOfCollisions 	0
scalar IntersectionExampleScenario.node[780].nic.phy80211p 	busyTime 	0
scalar IntersectionExampleScenario.node[780].nic.mac1609_4 	ReceivedUnicastPackets 	0
scalar IntersectionExampleScenario.node[780].nic.mac1609_4 	ReceivedBroadcasts 	0
scalar IntersectionExampleScenario.node[780].nic.mac1609_4 	SentPackets 	0
scalar IntersectionExampleScenario.node[780].nic.mac1609_4 	SNIRLostPackets 	0
scalar IntersectionExampleScenario.node[780].nic.mac1609_4 	RXTXLostPackets 	0
scalar IntersectionExampleScenario.node[780].nic.mac1609_4 	TotalLostPackets 	0
scalar IntersectionExampleScenario.node[780].nic.mac1609_4 	DroppedPacketsInMac 	0
scalar IntersectionExampleScenario.node[780].nic.mac1609_4 	TooLittleTime 	0
scalar IntersectionExampleScenario.node[780].nic.mac1609_4 	TimesIntoBackoff 	0
scalar IntersectionExampleScenario.node[780].nic.mac1609_4 	SlotsBackoff 	0
scalar IntersectionExampleScenario.node[780].nic.mac1609_4 	NumInternalContention 	0
scalar IntersectionExampleScenario.node[780].nic.mac1609_4 	totalBusyTime 	0
scalar IntersectionExampleScenario.node[780].veinsmobility 	startTime 	1791.75
scalar IntersectionExampleScenario.node[780].veinsmobility 	totalTime 	8.25
scalar IntersectionExampleScenario.node[780].veinsmobility 	stopTime 	1800
scalar IntersectionExampleScenario.node[780].veinsmobility 	minSpeed 	5.6500000953674
scalar IntersectionExampleScenario.node[780].veinsmobility 	maxSpeed 	15.64999961853
scalar IntersectionExampleScenario.node[780].veinsmobility 	totalDistance 	105.15875244141
scalar IntersectionExampleScenario.node[780].veinsmobility 	totalCO2Emission 	40.497289950743
scalar IntersectionExampleScenario.node[781].appl 	VehicleRemoved 	0
scalar IntersectionExampleScenario.node[781].appl 	ArrivedAtDest 	0
scalar IntersectionExampleScenario.node[781].appl 	IntersectionEnterTime 	1792
scalar IntersectionExampleScenario.node[781].appl 	IntersectionExitTime 	-1
scalar IntersectionExampleScenario.node[781].appl 	NumberOfCollisions 	0
scalar IntersectionExampleScenario.node[781].nic.phy80211p 	busyTime 	0
scalar IntersectionExampleScenario.node[781].nic.mac1609_4 	ReceivedUnicastPackets 	0
scalar IntersectionExampleScenario.node[781].nic.mac1609_4 	ReceivedBroadcasts 	0
scalar IntersectionExampleScenario.node[781].nic.mac1609_4 	SentPackets 	0
scalar IntersectionExampleScenario.node[781].nic.mac1609_4 	SNIRLostPackets 	0
scalar IntersectionExampleScenario.node[781].nic.mac1609_4 	RXTXLostPackets 	0
scalar IntersectionExampleScenario.node[781].nic.mac1609_4 	TotalLostPackets 	0
scalar IntersectionExampleScenario.node[781].nic.mac1609_4 	DroppedPacketsInMac 	0
scalar IntersectionExampleScenario.node[781].nic.mac1609_4 	TooLittleTime 	0
scalar IntersectionExampleScenario.node[781].nic.mac1609_4 	TimesIntoBackoff 	0
scalar IntersectionExampleScenario.node[781].nic.mac1609_4 	SlotsBackoff 	0
scalar IntersectionExampleScenario.node[781].nic.mac1609_4 	NumInternalContention 	0
scalar IntersectionExampleScenario.node[781].nic.mac1609_4 	totalBusyTime 	0
scalar IntersectionExampleScenario.node[781].veinsmobility 	startTime 	1792
scalar IntersectionExampleScenario.node[781].veinsmobility 	totalTime 	8
scalar IntersectionExampleScenario.node[781].veinsmobility 	stopTime 	1800
scalar IntersectionExampleScenario.node[781].veinsmobility 	minSpeed 	5.6500000953674
scalar IntersectionExampleScenario.node[781].veinsmobility 	maxSpeed 	15.02499961853
scalar IntersectionExampleScenario.node[781].veinsmobility 	totalDistance 	99.923500061035
scalar IntersectionExampleScenario.node[781].veinsmobility 	totalCO2Emission 	38.902086832977
scalar IntersectionExampleScenario.node[782].appl 	VehicleRemoved 	0
scalar IntersectionExampleScenario.node[782].appl 	ArrivedAtDest 	0
scalar IntersectionExampleScenario.node[782].appl 	IntersectionEnterTime 	1795.75
scalar IntersectionExampleScenario.node[782].appl 	IntersectionExitTime 	-1
scalar IntersectionExampleScenario.node[782].appl 	NumberOfCollisions 	0
scalar IntersectionExampleScenario.node[782].nic.phy80211p 	busyTime 	0
scalar IntersectionExampleScenario.node[782].nic.mac1609_4 	ReceivedUnicastPackets 	0
scalar IntersectionExampleScenario.node[782].nic.mac1609_4 	ReceivedBroadcasts 	0
scalar IntersectionExampleScenario.node[782].nic.mac1609_4 	SentPackets 	0
scalar IntersectionExampleScenario.node[782].nic.mac1609_4 	SNIRLostPackets 	0
scalar IntersectionExampleScenario.node[782].nic.mac1609_4 	RXTXLostPackets 	0
scalar IntersectionExampleScenario.node[782].nic.mac1609_4 	TotalLostPackets 	0
scalar IntersectionExampleScenario.node[782].nic.mac1609_4 	DroppedPacketsInMac 	0
scalar IntersectionExampleScenario.node[782].nic.mac1609_4 	TooLittleTime 	0
scalar IntersectionExampleScenario.node[782].nic.mac1609_4 	TimesIntoBackoff 	0
scalar IntersectionExampleScenario.node[782].nic.mac1609_4 	SlotsBackoff 	0
scalar IntersectionExampleScenario.node[782].nic.mac1609_4 	NumInternalContention 	0
scalar IntersectionExampleScenario.node[782].nic.mac1609_4 	totalBusyTime 	0
scalar IntersectionExampleScenario.node[782].veinsmobility 	startTime 	1795.75
scalar IntersectionExampleScenario.node[782].veinsmobility 	totalTime 	4.25
scalar IntersectionExampleScenario.node[782].veinsmobility 	stopTime 	1800
scalar IntersectionExampleScenario.node[782].veinsmobility 	minSpeed 	5.6500000953674
scalar IntersectionExampleScenario.node[782].veinsmobility 	maxSpeed 	8.8488445281982
scalar IntersectionExampleScenario.node[782].veinsmobility 	totalDistance 	31.104553222656
scalar IntersectionExampleScenario.node[782].veinsmobility 	totalCO2Emission 	14.123024782974
scalar IntersectionExampleScenario.node[783].appl 	VehicleRemoved 	0
scalar IntersectionExampleScenario.node[783].appl 	ArrivedAtDest 	0
scalar IntersectionExampleScenario.node[783].appl 	IntersectionEnterTime 	1796
scalar IntersectionExampleScenario.node[783].appl 	IntersectionExitTime 	-1
scalar IntersectionExampleScenario.node[783].appl 	NumberOfCollisions 	0
scalar IntersectionExampleScenario.node[783].nic.phy80211p 	busyTime 	0
scalar IntersectionExampleScenario.node[783].nic.mac1609_4 	ReceivedUnicastPackets 	0
scalar IntersectionExampleScenario.node[783].nic.mac1609_4 	ReceivedBroadcasts 	0
scalar IntersectionExampleScenario.node[783].nic.mac1609_4 	SentPackets 	0
scalar IntersectionExampleScenario.node[783].nic.mac1609_4 	SNIRLostPackets 	0
scalar IntersectionExampleScenario.node[783].nic.mac1609_4 	RXTXLostPackets 	0
scalar IntersectionExampleScenario.node[783].nic.mac1609_4 	TotalLostPackets 	0
scalar IntersectionExampleScenario.node[783].nic.mac1609_4 	DroppedPacketsInMac 	0
scalar IntersectionExampleScenario.node[783].nic.mac1609_4 	TooLittleTime 	0
scalar IntersectionExampleScenario.node[783].nic.mac1609_4 	TimesIntoBackoff 	0
scalar IntersectionExampleScenario.node[783].nic.mac1609_4 	SlotsBackoff 	0
scalar IntersectionExampleScenario.node[783].nic.mac1609_4 	NumInternalContention 	0
scalar IntersectionExampleScenario.node[783].nic.mac1609_4 	totalBusyTime 	0
scalar IntersectionExampleScenario.node[783].veinsmobility 	startTime 	1796
scalar IntersectionExampleScenario.node[783].veinsmobility 	totalTime 	4
scalar IntersectionExampleScenario.node[783].veinsmobility 	stopTime 	1800
scalar IntersectionExampleScenario.node[783].veinsmobility 	minSpeed 	5.6500000953674
scalar IntersectionExampleScenario.node[783].veinsmobility 	maxSpeed 	9.1717748641968
scalar IntersectionExampleScenario.node[783].veinsmobility 	totalDistance 	32.626586914062
scalar IntersectionExampleScenario.node[783].veinsmobility 	totalCO2Emission 	12.42996351241
scalar IntersectionExampleScenario.node[784].appl 	VehicleRemoved 	0
scalar IntersectionExampleScenario.node[784].appl 	ArrivedAtDest 	0
scalar IntersectionExampleScenario.node[784].appl 	IntersectionEnterTime 	1797.25
scalar IntersectionExampleScenario.node[784].appl 	IntersectionExitTime 	-1
scalar IntersectionExampleScenario.node[784].appl 	NumberOfCollisions 	0
scalar IntersectionExampleScenario.node[784].nic.phy80211p 	busyTime 	0
scalar IntersectionExampleScenario.node[784].nic.mac1609_4 	ReceivedUnicastPackets 	0
scalar IntersectionExampleScenario.node[784].nic.mac1609_4 	ReceivedBroadcasts 	0
scalar IntersectionExampleScenario.node[784].nic.mac1609_4 	SentPackets 	0
scalar IntersectionExampleScenario.node[784].nic.mac1609_4 	SNIRLostPackets 	0
scalar IntersectionExampleScenario.node[784].nic.mac1609_4 	RXTXLostPackets 	0
scalar IntersectionExampleScenario.node[784].nic.mac1609_4 	TotalLostPackets 	0
scalar IntersectionExampleScenario.node[784].nic.mac1609_4 	DroppedPacketsInMac 	0
scalar IntersectionExampleScenario.node[784].nic.mac1609_4 	TooLittleTime 	0
scalar IntersectionExampleScenario.node[784].nic.mac1609_4 	TimesIntoBackoff 	0
scalar IntersectionExampleScenario.node[784].nic.mac1609_4 	SlotsBackoff 	0
scalar IntersectionExampleScenario.node[784].nic.mac1609_4 	NumInternalContention 	0
scalar IntersectionExampleScenario.node[784].nic.mac1609_4 	totalBusyTime 	0
scalar IntersectionExampleScenario.node[784].veinsmobility 	startTime 	1797.25
scalar IntersectionExampleScenario.node[784].veinsmobility 	totalTime 	2.75
scalar IntersectionExampleScenario.node[784].veinsmobility 	stopTime 	1800
scalar IntersectionExampleScenario.node[784].veinsmobility 	minSpeed 	5.6500000953674
scalar IntersectionExampleScenario.node[784].veinsmobility 	maxSpeed 	11.89999961853
scalar IntersectionExampleScenario.node[784].veinsmobility 	totalDistance 	23.506164550781
scalar IntersectionExampleScenario.node[784].veinsmobility 	totalCO2Emission 	17.752607434053
scalar IntersectionExampleScenario.node[785].appl 	VehicleRemoved 	0
scalar IntersectionExampleScenario.node[785].appl 	ArrivedAtDest 	0
scalar IntersectionExampleScenario.node[785].appl 	IntersectionEnterTime 	1798.5
scalar IntersectionExampleScenario.node[785].appl 	IntersectionExitTime 	-1
scalar IntersectionExampleScenario.node[785].appl 	NumberOfCollisions 	0
scalar IntersectionExampleScenario.node[785].nic.phy80211p 	busyTime 	0
scalar IntersectionExampleScenario.node[785].nic.mac1609_4 	ReceivedUnicastPackets 	0
scalar IntersectionExampleScenario.node[785].nic.mac1609_4 	ReceivedBroadcasts 	0
scalar IntersectionExampleScenario.node[785].nic.mac1609_4 	SentPackets 	0
scalar IntersectionExampleScenario.node[785].nic.mac1609_4 	SNIRLostPackets 	0
scalar IntersectionExampleScenario.node[785].nic.mac1609_4 	RXTXLostPackets 	0
scalar IntersectionExampleScenario.node[785].nic.mac1609_4 	TotalLostPackets 	0
scalar IntersectionExampleScenario.node[785].nic.mac1609_4 	DroppedPacketsInMac 	0
scalar IntersectionExampleScenario.node[785].nic.mac1609_4 	TooLittleTime 	0
scalar IntersectionExampleScenario.node[785].nic.mac1609_4 	TimesIntoBackoff 	0
scalar IntersectionExampleScenario.node[785].nic.mac1609_4 	SlotsBackoff 	0
scalar IntersectionExampleScenario.node[785].nic.mac1609_4 	NumInternalContention 	0
scalar IntersectionExampleScenario.node[785].nic.mac1609_4 	totalBusyTime 	0
scalar IntersectionExampleScenario.node[785].veinsmobility 	startTime 	1798.5
scalar IntersectionExampleScenario.node[785].veinsmobility 	totalTime 	1.5
scalar IntersectionExampleScenario.node[785].veinsmobility 	stopTime 	1800
scalar IntersectionExampleScenario.node[785].veinsmobility 	minSpeed 	5.6500000953674
scalar IntersectionExampleScenario.node[785].veinsmobility 	maxSpeed 	8.7749996185303
scalar IntersectionExampleScenario.node[785].veinsmobility 	totalDistance 	10.349975585938
scalar IntersectionExampleScenario.node[785].veinsmobility 	totalCO2Emission 	7.5597628883124
scalar IntersectionExampleScenario.node[786].appl 	VehicleRemoved 	0
scalar IntersectionExampleScenario.node[786].appl 	ArrivedAtDest 	0
scalar IntersectionExampleScenario.node[786].appl 	IntersectionEnterTime 	1798.5
scalar IntersectionExampleScenario.node[786].appl 	IntersectionExitTime 	-1
scalar IntersectionExampleScenario.node[786].appl 	NumberOfCollisions 	0
scalar IntersectionExampleScenario.node[786].nic.phy80211p 	busyTime 	0
scalar IntersectionExampleScenario.node[786].nic.mac1609_4 	ReceivedUnicastPackets 	0
scalar IntersectionExampleScenario.node[786].nic.mac1609_4 	ReceivedBroadcasts 	0
scalar IntersectionExampleScenario.node[786].nic.mac1609_4 	SentPackets 	0
scalar IntersectionExampleScenario.node[786].nic.mac1609_4 	SNIRLostPackets 	0
scalar IntersectionExampleScenario.node[786].nic.mac1609_4 	RXTXLostPackets 	0
scalar IntersectionExampleScenario.node[786].nic.mac1609_4 	TotalLostPackets 	0
scalar IntersectionExampleScenario.node[786].nic.mac1609_4 	DroppedPacketsInMac 	0
scalar IntersectionExampleScenario.node[786].nic.mac1609_4 	TooLittleTime 	0
scalar IntersectionExampleScenario.node[786].nic.mac1609_4 	TimesIntoBackoff 	0
scalar IntersectionExampleScenario.node[786].nic.mac1609_4 	SlotsBackoff 	0
scalar IntersectionExampleScenario.node[786].nic.mac1609_4 	NumInternalContention 	0
scalar IntersectionExampleScenario.node[786].nic.mac1609_4 	totalBusyTime 	0
scalar IntersectionExampleScenario.node[786].veinsmobility 	startTime 	1798.5
scalar IntersectionExampleScenario.node[786].veinsmobility 	totalTime 	1.5
scalar IntersectionExampleScenario.node[786].veinsmobility 	stopTime 	1800
scalar IntersectionExampleScenario.node[786].veinsmobility 	minSpeed 	5.6500000953674
scalar IntersectionExampleScenario.node[786].veinsmobility 	maxSpeed 	8.7749996185303
scalar IntersectionExampleScenario.node[786].veinsmobility 	totalDistance 	10.350036621094
scalar IntersectionExampleScenario.node[786].veinsmobility 	totalCO2Emission 	7.5597628883124
