version 2
run nodebug-41-20200606-13:43:41-21956
attr configname nodebug
attr datetime 20200606-13:43:41
attr experiment nodebug
attr inifile omnetpp.ini
attr iterationvars ""
attr iterationvars2 $repetition=41
attr measurement ""
attr network "\"org.car2x.veins.modules.application.ExtTraCIScenarioManagerLaunchd.IntersectionExampleScenario\""
attr processid 21956
attr repetition 41
attr replication #41
attr resultdir results
attr runnumber 41
attr seedset 41
param **.coreDebug false
param **.debug false
param *.**.nic.mac1609_4.bitrate 18Mbps
param *.**.nic.mac1609_4.txPower 20mW
param *.**.nic.mac1609_4.useServiceChannel false
param *.**.nic.phy80211p.analogueModels "xmldoc(\"config.xml\")"
param *.**.nic.phy80211p.decider "xmldoc(\"config.xml\")"
param *.**.nic.phy80211p.sensitivity -89dBm
param *.**.nic.phy80211p.thermalNoise -110dBm
param *.**.nic.phy80211p.usePropagationDelay true
param *.**.nic.phy80211p.useThermalNoise true
param *.annotations.draw false
param *.connectionManager.alpha 2.0
param *.connectionManager.carrierFrequency "5.890e9 Hz"
param *.connectionManager.pMax 20mW
param *.connectionManager.sat -89dBm
param *.connectionManager.sendDirect true
param *.manager.autoShutdown true
param *.manager.host "\"localhost\""
param *.manager.launchConfig "xmldoc(\"paramics.launchd.xml\")"
param *.manager.margin 25
param *.manager.moduleDisplayString "\"\""
param *.manager.moduleName "\"node\""
param *.manager.moduleType "\"org.car2x.veins.nodes.Car\""
param *.manager.port 9999
param *.manager.updateInterval 250ms
param *.node[*0].veinsmobility.accidentCount 0
param *.node[*0].veinsmobility.accidentDuration 30s
param *.node[*0].veinsmobility.accidentStart 75s
param *.node[*].appl.LiderSelectZoneRadio 55.0
param *.node[*].appl.ShareDataZoneRadio 110.0
param *.node[*].appl.TiempoSemaforo 30.0
param *.node[*].appl.beaconInterval 1s
param *.node[*].appl.beaconPriority 3
param *.node[*].appl.dataOnSch false
param *.node[*].appl.dataPriority 2
param *.node[*].appl.debug false
param *.node[*].appl.headerLength "256 bit"
param *.node[*].appl.maxOffset 0.005s
param *.node[*].appl.sendBeacons false
param *.node[*].appl.sendData true
param *.node[*].applType "\"Dummy\""
param *.node[*].mobilityType "\"TraCIMobility\""
param *.node[*].mobilityType.debug true
param *.node[*].veinsmobility.x 0
param *.node[*].veinsmobility.y 0
param *.node[*].veinsmobility.z 1.895
param *.node[*].veinsmobilityType "\"org.car2x.veins.modules.mobility.traci.TraCIMobility\""
param *.node[*].veinsmobilityType.debug true
param *.playgroundSizeX 8500m
param *.playgroundSizeY 8500m
param *.playgroundSizeZ 50m
param *.world.use2D false
param *.world.useTorus false

scalar IntersectionExampleScenario.node[1].appl 	VehicleRemoved 	0
scalar IntersectionExampleScenario.node[1].appl 	ArrivedAtDest 	1
scalar IntersectionExampleScenario.node[1].appl 	IntersectionEnterTime 	1.25
scalar IntersectionExampleScenario.node[1].appl 	IntersectionExitTime 	24.83356446409
scalar IntersectionExampleScenario.node[1].appl 	NumberOfCollisions 	0
scalar IntersectionExampleScenario.node[1].nic.phy80211p 	busyTime 	0
scalar IntersectionExampleScenario.node[1].nic.mac1609_4 	ReceivedUnicastPackets 	0
scalar IntersectionExampleScenario.node[1].nic.mac1609_4 	ReceivedBroadcasts 	0
scalar IntersectionExampleScenario.node[1].nic.mac1609_4 	SentPackets 	0
scalar IntersectionExampleScenario.node[1].nic.mac1609_4 	SNIRLostPackets 	0
scalar IntersectionExampleScenario.node[1].nic.mac1609_4 	RXTXLostPackets 	0
scalar IntersectionExampleScenario.node[1].nic.mac1609_4 	TotalLostPackets 	0
scalar IntersectionExampleScenario.node[1].nic.mac1609_4 	DroppedPacketsInMac 	0
scalar IntersectionExampleScenario.node[1].nic.mac1609_4 	TooLittleTime 	0
scalar IntersectionExampleScenario.node[1].nic.mac1609_4 	TimesIntoBackoff 	0
scalar IntersectionExampleScenario.node[1].nic.mac1609_4 	SlotsBackoff 	0
scalar IntersectionExampleScenario.node[1].nic.mac1609_4 	NumInternalContention 	0
scalar IntersectionExampleScenario.node[1].nic.mac1609_4 	totalBusyTime 	0
scalar IntersectionExampleScenario.node[1].veinsmobility 	startTime 	1.25
scalar IntersectionExampleScenario.node[1].veinsmobility 	totalTime 	40.25
scalar IntersectionExampleScenario.node[1].veinsmobility 	stopTime 	41.75
scalar IntersectionExampleScenario.node[1].veinsmobility 	minSpeed 	5.6500000953674
scalar IntersectionExampleScenario.node[1].veinsmobility 	maxSpeed 	15.64999961853
scalar IntersectionExampleScenario.node[1].veinsmobility 	totalDistance 	545.75284924349
scalar IntersectionExampleScenario.node[1].veinsmobility 	totalCO2Emission 	126.65543267184
scalar IntersectionExampleScenario.node[2].appl 	VehicleRemoved 	0
scalar IntersectionExampleScenario.node[2].appl 	ArrivedAtDest 	1
scalar IntersectionExampleScenario.node[2].appl 	IntersectionEnterTime 	5.75
scalar IntersectionExampleScenario.node[2].appl 	IntersectionExitTime 	28.03537920423
scalar IntersectionExampleScenario.node[2].appl 	NumberOfCollisions 	0
scalar IntersectionExampleScenario.node[2].nic.phy80211p 	busyTime 	0
scalar IntersectionExampleScenario.node[2].nic.mac1609_4 	ReceivedUnicastPackets 	0
scalar IntersectionExampleScenario.node[2].nic.mac1609_4 	ReceivedBroadcasts 	0
scalar IntersectionExampleScenario.node[2].nic.mac1609_4 	SentPackets 	0
scalar IntersectionExampleScenario.node[2].nic.mac1609_4 	SNIRLostPackets 	0
scalar IntersectionExampleScenario.node[2].nic.mac1609_4 	RXTXLostPackets 	0
scalar IntersectionExampleScenario.node[2].nic.mac1609_4 	TotalLostPackets 	0
scalar IntersectionExampleScenario.node[2].nic.mac1609_4 	DroppedPacketsInMac 	0
scalar IntersectionExampleScenario.node[2].nic.mac1609_4 	TooLittleTime 	0
scalar IntersectionExampleScenario.node[2].nic.mac1609_4 	TimesIntoBackoff 	0
scalar IntersectionExampleScenario.node[2].nic.mac1609_4 	SlotsBackoff 	0
scalar IntersectionExampleScenario.node[2].nic.mac1609_4 	NumInternalContention 	0
scalar IntersectionExampleScenario.node[2].nic.mac1609_4 	totalBusyTime 	0
scalar IntersectionExampleScenario.node[2].veinsmobility 	startTime 	5.75
scalar IntersectionExampleScenario.node[2].veinsmobility 	totalTime 	37.75
scalar IntersectionExampleScenario.node[2].veinsmobility 	stopTime 	43.75
scalar IntersectionExampleScenario.node[2].veinsmobility 	minSpeed 	5.6500000953674
scalar IntersectionExampleScenario.node[2].veinsmobility 	maxSpeed 	16.27499961853
scalar IntersectionExampleScenario.node[2].veinsmobility 	totalDistance 	552.00889587402
scalar IntersectionExampleScenario.node[2].veinsmobility 	totalCO2Emission 	120.97041624491
scalar IntersectionExampleScenario.node[3].appl 	VehicleRemoved 	0
scalar IntersectionExampleScenario.node[3].appl 	ArrivedAtDest 	1
scalar IntersectionExampleScenario.node[3].appl 	IntersectionEnterTime 	7
scalar IntersectionExampleScenario.node[3].appl 	IntersectionExitTime 	29.758690058894
scalar IntersectionExampleScenario.node[3].appl 	NumberOfCollisions 	0
scalar IntersectionExampleScenario.node[3].nic.phy80211p 	busyTime 	0
scalar IntersectionExampleScenario.node[3].nic.mac1609_4 	ReceivedUnicastPackets 	0
scalar IntersectionExampleScenario.node[3].nic.mac1609_4 	ReceivedBroadcasts 	0
scalar IntersectionExampleScenario.node[3].nic.mac1609_4 	SentPackets 	0
scalar IntersectionExampleScenario.node[3].nic.mac1609_4 	SNIRLostPackets 	0
scalar IntersectionExampleScenario.node[3].nic.mac1609_4 	RXTXLostPackets 	0
scalar IntersectionExampleScenario.node[3].nic.mac1609_4 	TotalLostPackets 	0
scalar IntersectionExampleScenario.node[3].nic.mac1609_4 	DroppedPacketsInMac 	0
scalar IntersectionExampleScenario.node[3].nic.mac1609_4 	TooLittleTime 	0
scalar IntersectionExampleScenario.node[3].nic.mac1609_4 	TimesIntoBackoff 	0
scalar IntersectionExampleScenario.node[3].nic.mac1609_4 	SlotsBackoff 	0
scalar IntersectionExampleScenario.node[3].nic.mac1609_4 	NumInternalContention 	0
scalar IntersectionExampleScenario.node[3].nic.mac1609_4 	totalBusyTime 	0
scalar IntersectionExampleScenario.node[3].veinsmobility 	startTime 	7
scalar IntersectionExampleScenario.node[3].veinsmobility 	totalTime 	38.75
scalar IntersectionExampleScenario.node[3].veinsmobility 	stopTime 	46
scalar IntersectionExampleScenario.node[3].veinsmobility 	minSpeed 	5.6500000953674
scalar IntersectionExampleScenario.node[3].veinsmobility 	maxSpeed 	16.28141784668
scalar IntersectionExampleScenario.node[3].veinsmobility 	totalDistance 	544.81817281255
scalar IntersectionExampleScenario.node[3].veinsmobility 	totalCO2Emission 	133.17601938341
scalar IntersectionExampleScenario.node[4].appl 	VehicleRemoved 	0
scalar IntersectionExampleScenario.node[4].appl 	ArrivedAtDest 	1
scalar IntersectionExampleScenario.node[4].appl 	IntersectionEnterTime 	8
scalar IntersectionExampleScenario.node[4].appl 	IntersectionExitTime 	33.049776599364
scalar IntersectionExampleScenario.node[4].appl 	NumberOfCollisions 	0
scalar IntersectionExampleScenario.node[4].nic.phy80211p 	busyTime 	0
scalar IntersectionExampleScenario.node[4].nic.mac1609_4 	ReceivedUnicastPackets 	0
scalar IntersectionExampleScenario.node[4].nic.mac1609_4 	ReceivedBroadcasts 	0
scalar IntersectionExampleScenario.node[4].nic.mac1609_4 	SentPackets 	0
scalar IntersectionExampleScenario.node[4].nic.mac1609_4 	SNIRLostPackets 	0
scalar IntersectionExampleScenario.node[4].nic.mac1609_4 	RXTXLostPackets 	0
scalar IntersectionExampleScenario.node[4].nic.mac1609_4 	TotalLostPackets 	0
scalar IntersectionExampleScenario.node[4].nic.mac1609_4 	DroppedPacketsInMac 	0
scalar IntersectionExampleScenario.node[4].nic.mac1609_4 	TooLittleTime 	0
scalar IntersectionExampleScenario.node[4].nic.mac1609_4 	TimesIntoBackoff 	0
scalar IntersectionExampleScenario.node[4].nic.mac1609_4 	SlotsBackoff 	0
scalar IntersectionExampleScenario.node[4].nic.mac1609_4 	NumInternalContention 	0
scalar IntersectionExampleScenario.node[4].nic.mac1609_4 	totalBusyTime 	0
scalar IntersectionExampleScenario.node[4].veinsmobility 	startTime 	8
scalar IntersectionExampleScenario.node[4].veinsmobility 	totalTime 	41.5
scalar IntersectionExampleScenario.node[4].veinsmobility 	stopTime 	49.75
scalar IntersectionExampleScenario.node[4].veinsmobility 	minSpeed 	5.6500000953674
scalar IntersectionExampleScenario.node[4].veinsmobility 	maxSpeed 	15.875
scalar IntersectionExampleScenario.node[4].veinsmobility 	totalDistance 	568.60333374955
scalar IntersectionExampleScenario.node[4].veinsmobility 	totalCO2Emission 	131.19303349473
scalar IntersectionExampleScenario.node[6].appl 	VehicleRemoved 	0
scalar IntersectionExampleScenario.node[6].appl 	ArrivedAtDest 	1
scalar IntersectionExampleScenario.node[6].appl 	IntersectionEnterTime 	9.25
scalar IntersectionExampleScenario.node[6].appl 	IntersectionExitTime 	35.572950754897
scalar IntersectionExampleScenario.node[6].appl 	NumberOfCollisions 	0
scalar IntersectionExampleScenario.node[6].nic.phy80211p 	busyTime 	0
scalar IntersectionExampleScenario.node[6].nic.mac1609_4 	ReceivedUnicastPackets 	0
scalar IntersectionExampleScenario.node[6].nic.mac1609_4 	ReceivedBroadcasts 	0
scalar IntersectionExampleScenario.node[6].nic.mac1609_4 	SentPackets 	0
scalar IntersectionExampleScenario.node[6].nic.mac1609_4 	SNIRLostPackets 	0
scalar IntersectionExampleScenario.node[6].nic.mac1609_4 	RXTXLostPackets 	0
scalar IntersectionExampleScenario.node[6].nic.mac1609_4 	TotalLostPackets 	0
scalar IntersectionExampleScenario.node[6].nic.mac1609_4 	DroppedPacketsInMac 	0
scalar IntersectionExampleScenario.node[6].nic.mac1609_4 	TooLittleTime 	0
scalar IntersectionExampleScenario.node[6].nic.mac1609_4 	TimesIntoBackoff 	0
scalar IntersectionExampleScenario.node[6].nic.mac1609_4 	SlotsBackoff 	0
scalar IntersectionExampleScenario.node[6].nic.mac1609_4 	NumInternalContention 	0
scalar IntersectionExampleScenario.node[6].nic.mac1609_4 	totalBusyTime 	0
scalar IntersectionExampleScenario.node[6].veinsmobility 	startTime 	9.25
scalar IntersectionExampleScenario.node[6].veinsmobility 	totalTime 	43.75
scalar IntersectionExampleScenario.node[6].veinsmobility 	stopTime 	53.25
scalar IntersectionExampleScenario.node[6].veinsmobility 	minSpeed 	1.7167432308197
scalar IntersectionExampleScenario.node[6].veinsmobility 	maxSpeed 	15.02499961853
scalar IntersectionExampleScenario.node[6].veinsmobility 	totalDistance 	546.31391913609
scalar IntersectionExampleScenario.node[6].veinsmobility 	totalCO2Emission 	130.23983171208
scalar IntersectionExampleScenario.node[10].appl 	VehicleRemoved 	0
scalar IntersectionExampleScenario.node[10].appl 	ArrivedAtDest 	1
scalar IntersectionExampleScenario.node[10].appl 	IntersectionEnterTime 	20.75
scalar IntersectionExampleScenario.node[10].appl 	IntersectionExitTime 	44.012467240507
scalar IntersectionExampleScenario.node[10].appl 	NumberOfCollisions 	0
scalar IntersectionExampleScenario.node[10].nic.phy80211p 	busyTime 	0
scalar IntersectionExampleScenario.node[10].nic.mac1609_4 	ReceivedUnicastPackets 	0
scalar IntersectionExampleScenario.node[10].nic.mac1609_4 	ReceivedBroadcasts 	0
scalar IntersectionExampleScenario.node[10].nic.mac1609_4 	SentPackets 	0
scalar IntersectionExampleScenario.node[10].nic.mac1609_4 	SNIRLostPackets 	0
scalar IntersectionExampleScenario.node[10].nic.mac1609_4 	RXTXLostPackets 	0
scalar IntersectionExampleScenario.node[10].nic.mac1609_4 	TotalLostPackets 	0
scalar IntersectionExampleScenario.node[10].nic.mac1609_4 	DroppedPacketsInMac 	0
scalar IntersectionExampleScenario.node[10].nic.mac1609_4 	TooLittleTime 	0
scalar IntersectionExampleScenario.node[10].nic.mac1609_4 	TimesIntoBackoff 	0
scalar IntersectionExampleScenario.node[10].nic.mac1609_4 	SlotsBackoff 	0
scalar IntersectionExampleScenario.node[10].nic.mac1609_4 	NumInternalContention 	0
scalar IntersectionExampleScenario.node[10].nic.mac1609_4 	totalBusyTime 	0
scalar IntersectionExampleScenario.node[10].veinsmobility 	startTime 	20.75
scalar IntersectionExampleScenario.node[10].veinsmobility 	totalTime 	39.75
scalar IntersectionExampleScenario.node[10].veinsmobility 	stopTime 	60.75
scalar IntersectionExampleScenario.node[10].veinsmobility 	minSpeed 	5.6500000953674
scalar IntersectionExampleScenario.node[10].veinsmobility 	maxSpeed 	15.875
scalar IntersectionExampleScenario.node[10].veinsmobility 	totalDistance 	545.83180293153
scalar IntersectionExampleScenario.node[10].veinsmobility 	totalCO2Emission 	128.35904976917
scalar IntersectionExampleScenario.node[0].appl 	VehicleRemoved 	0
scalar IntersectionExampleScenario.node[0].appl 	ArrivedAtDest 	1
scalar IntersectionExampleScenario.node[0].appl 	IntersectionEnterTime 	0.5
scalar IntersectionExampleScenario.node[0].appl 	IntersectionExitTime 	45.505433685699
scalar IntersectionExampleScenario.node[0].appl 	NumberOfCollisions 	0
scalar IntersectionExampleScenario.node[0].nic.phy80211p 	busyTime 	0
scalar IntersectionExampleScenario.node[0].nic.mac1609_4 	ReceivedUnicastPackets 	0
scalar IntersectionExampleScenario.node[0].nic.mac1609_4 	ReceivedBroadcasts 	0
scalar IntersectionExampleScenario.node[0].nic.mac1609_4 	SentPackets 	0
scalar IntersectionExampleScenario.node[0].nic.mac1609_4 	SNIRLostPackets 	0
scalar IntersectionExampleScenario.node[0].nic.mac1609_4 	RXTXLostPackets 	0
scalar IntersectionExampleScenario.node[0].nic.mac1609_4 	TotalLostPackets 	0
scalar IntersectionExampleScenario.node[0].nic.mac1609_4 	DroppedPacketsInMac 	0
scalar IntersectionExampleScenario.node[0].nic.mac1609_4 	TooLittleTime 	0
scalar IntersectionExampleScenario.node[0].nic.mac1609_4 	TimesIntoBackoff 	0
scalar IntersectionExampleScenario.node[0].nic.mac1609_4 	SlotsBackoff 	0
scalar IntersectionExampleScenario.node[0].nic.mac1609_4 	NumInternalContention 	0
scalar IntersectionExampleScenario.node[0].nic.mac1609_4 	totalBusyTime 	0
scalar IntersectionExampleScenario.node[0].veinsmobility 	startTime 	0.5
scalar IntersectionExampleScenario.node[0].veinsmobility 	totalTime 	62.25
scalar IntersectionExampleScenario.node[0].veinsmobility 	stopTime 	63
scalar IntersectionExampleScenario.node[0].veinsmobility 	minSpeed 	0
scalar IntersectionExampleScenario.node[0].veinsmobility 	maxSpeed 	15.25
scalar IntersectionExampleScenario.node[0].veinsmobility 	totalDistance 	544.91891385466
scalar IntersectionExampleScenario.node[0].veinsmobility 	totalCO2Emission 	149.98564346935
scalar IntersectionExampleScenario.node[5].appl 	VehicleRemoved 	0
scalar IntersectionExampleScenario.node[5].appl 	ArrivedAtDest 	1
scalar IntersectionExampleScenario.node[5].appl 	IntersectionEnterTime 	8
scalar IntersectionExampleScenario.node[5].appl 	IntersectionExitTime 	47.299238527048
scalar IntersectionExampleScenario.node[5].appl 	NumberOfCollisions 	0
scalar IntersectionExampleScenario.node[5].nic.phy80211p 	busyTime 	0
scalar IntersectionExampleScenario.node[5].nic.mac1609_4 	ReceivedUnicastPackets 	0
scalar IntersectionExampleScenario.node[5].nic.mac1609_4 	ReceivedBroadcasts 	0
scalar IntersectionExampleScenario.node[5].nic.mac1609_4 	SentPackets 	0
scalar IntersectionExampleScenario.node[5].nic.mac1609_4 	SNIRLostPackets 	0
scalar IntersectionExampleScenario.node[5].nic.mac1609_4 	RXTXLostPackets 	0
scalar IntersectionExampleScenario.node[5].nic.mac1609_4 	TotalLostPackets 	0
scalar IntersectionExampleScenario.node[5].nic.mac1609_4 	DroppedPacketsInMac 	0
scalar IntersectionExampleScenario.node[5].nic.mac1609_4 	TooLittleTime 	0
scalar IntersectionExampleScenario.node[5].nic.mac1609_4 	TimesIntoBackoff 	0
scalar IntersectionExampleScenario.node[5].nic.mac1609_4 	SlotsBackoff 	0
scalar IntersectionExampleScenario.node[5].nic.mac1609_4 	NumInternalContention 	0
scalar IntersectionExampleScenario.node[5].nic.mac1609_4 	totalBusyTime 	0
scalar IntersectionExampleScenario.node[5].veinsmobility 	startTime 	8
scalar IntersectionExampleScenario.node[5].veinsmobility 	totalTime 	56
scalar IntersectionExampleScenario.node[5].veinsmobility 	stopTime 	64.25
scalar IntersectionExampleScenario.node[5].veinsmobility 	minSpeed 	0
scalar IntersectionExampleScenario.node[5].veinsmobility 	maxSpeed 	15.02499961853
scalar IntersectionExampleScenario.node[5].veinsmobility 	totalDistance 	553.43570709229
scalar IntersectionExampleScenario.node[5].veinsmobility 	totalCO2Emission 	139.98512497858
scalar IntersectionExampleScenario.node[9].appl 	VehicleRemoved 	0
scalar IntersectionExampleScenario.node[9].appl 	ArrivedAtDest 	1
scalar IntersectionExampleScenario.node[9].appl 	IntersectionEnterTime 	14.25
scalar IntersectionExampleScenario.node[9].appl 	IntersectionExitTime 	49.777260961419
scalar IntersectionExampleScenario.node[9].appl 	NumberOfCollisions 	0
scalar IntersectionExampleScenario.node[9].nic.phy80211p 	busyTime 	0
scalar IntersectionExampleScenario.node[9].nic.mac1609_4 	ReceivedUnicastPackets 	0
scalar IntersectionExampleScenario.node[9].nic.mac1609_4 	ReceivedBroadcasts 	0
scalar IntersectionExampleScenario.node[9].nic.mac1609_4 	SentPackets 	0
scalar IntersectionExampleScenario.node[9].nic.mac1609_4 	SNIRLostPackets 	0
scalar IntersectionExampleScenario.node[9].nic.mac1609_4 	RXTXLostPackets 	0
scalar IntersectionExampleScenario.node[9].nic.mac1609_4 	TotalLostPackets 	0
scalar IntersectionExampleScenario.node[9].nic.mac1609_4 	DroppedPacketsInMac 	0
scalar IntersectionExampleScenario.node[9].nic.mac1609_4 	TooLittleTime 	0
scalar IntersectionExampleScenario.node[9].nic.mac1609_4 	TimesIntoBackoff 	0
scalar IntersectionExampleScenario.node[9].nic.mac1609_4 	SlotsBackoff 	0
scalar IntersectionExampleScenario.node[9].nic.mac1609_4 	NumInternalContention 	0
scalar IntersectionExampleScenario.node[9].nic.mac1609_4 	totalBusyTime 	0
scalar IntersectionExampleScenario.node[9].veinsmobility 	startTime 	14.25
scalar IntersectionExampleScenario.node[9].veinsmobility 	totalTime 	51
scalar IntersectionExampleScenario.node[9].veinsmobility 	stopTime 	65.5
scalar IntersectionExampleScenario.node[9].veinsmobility 	minSpeed 	1.4081710577011
scalar IntersectionExampleScenario.node[9].veinsmobility 	maxSpeed 	15.991696357727
scalar IntersectionExampleScenario.node[9].veinsmobility 	totalDistance 	553.14096832275
scalar IntersectionExampleScenario.node[9].veinsmobility 	totalCO2Emission 	144.69233705643
scalar IntersectionExampleScenario.node[13].appl 	VehicleRemoved 	0
scalar IntersectionExampleScenario.node[13].appl 	ArrivedAtDest 	1
scalar IntersectionExampleScenario.node[13].appl 	IntersectionEnterTime 	27
scalar IntersectionExampleScenario.node[13].appl 	IntersectionExitTime 	52.270735385275
scalar IntersectionExampleScenario.node[13].appl 	NumberOfCollisions 	0
scalar IntersectionExampleScenario.node[13].nic.phy80211p 	busyTime 	0
scalar IntersectionExampleScenario.node[13].nic.mac1609_4 	ReceivedUnicastPackets 	0
scalar IntersectionExampleScenario.node[13].nic.mac1609_4 	ReceivedBroadcasts 	0
scalar IntersectionExampleScenario.node[13].nic.mac1609_4 	SentPackets 	0
scalar IntersectionExampleScenario.node[13].nic.mac1609_4 	SNIRLostPackets 	0
scalar IntersectionExampleScenario.node[13].nic.mac1609_4 	RXTXLostPackets 	0
scalar IntersectionExampleScenario.node[13].nic.mac1609_4 	TotalLostPackets 	0
scalar IntersectionExampleScenario.node[13].nic.mac1609_4 	DroppedPacketsInMac 	0
scalar IntersectionExampleScenario.node[13].nic.mac1609_4 	TooLittleTime 	0
scalar IntersectionExampleScenario.node[13].nic.mac1609_4 	TimesIntoBackoff 	0
scalar IntersectionExampleScenario.node[13].nic.mac1609_4 	SlotsBackoff 	0
scalar IntersectionExampleScenario.node[13].nic.mac1609_4 	NumInternalContention 	0
scalar IntersectionExampleScenario.node[13].nic.mac1609_4 	totalBusyTime 	0
scalar IntersectionExampleScenario.node[13].veinsmobility 	startTime 	27
scalar IntersectionExampleScenario.node[13].veinsmobility 	totalTime 	40.75
scalar IntersectionExampleScenario.node[13].veinsmobility 	stopTime 	68
scalar IntersectionExampleScenario.node[13].veinsmobility 	minSpeed 	5.6500000953674
scalar IntersectionExampleScenario.node[13].veinsmobility 	maxSpeed 	15.64999961853
scalar IntersectionExampleScenario.node[13].veinsmobility 	totalDistance 	551.19834136963
scalar IntersectionExampleScenario.node[13].veinsmobility 	totalCO2Emission 	128.84260884746
scalar IntersectionExampleScenario.node[12].appl 	VehicleRemoved 	0
scalar IntersectionExampleScenario.node[12].appl 	ArrivedAtDest 	1
scalar IntersectionExampleScenario.node[12].appl 	IntersectionEnterTime 	26.75
scalar IntersectionExampleScenario.node[12].appl 	IntersectionExitTime 	55.330043566937
scalar IntersectionExampleScenario.node[12].appl 	NumberOfCollisions 	0
scalar IntersectionExampleScenario.node[12].nic.phy80211p 	busyTime 	0
scalar IntersectionExampleScenario.node[12].nic.mac1609_4 	ReceivedUnicastPackets 	0
scalar IntersectionExampleScenario.node[12].nic.mac1609_4 	ReceivedBroadcasts 	0
scalar IntersectionExampleScenario.node[12].nic.mac1609_4 	SentPackets 	0
scalar IntersectionExampleScenario.node[12].nic.mac1609_4 	SNIRLostPackets 	0
scalar IntersectionExampleScenario.node[12].nic.mac1609_4 	RXTXLostPackets 	0
scalar IntersectionExampleScenario.node[12].nic.mac1609_4 	TotalLostPackets 	0
scalar IntersectionExampleScenario.node[12].nic.mac1609_4 	DroppedPacketsInMac 	0
scalar IntersectionExampleScenario.node[12].nic.mac1609_4 	TooLittleTime 	0
scalar IntersectionExampleScenario.node[12].nic.mac1609_4 	TimesIntoBackoff 	0
scalar IntersectionExampleScenario.node[12].nic.mac1609_4 	SlotsBackoff 	0
scalar IntersectionExampleScenario.node[12].nic.mac1609_4 	NumInternalContention 	0
scalar IntersectionExampleScenario.node[12].nic.mac1609_4 	totalBusyTime 	0
scalar IntersectionExampleScenario.node[12].veinsmobility 	startTime 	26.75
scalar IntersectionExampleScenario.node[12].veinsmobility 	totalTime 	44.25
scalar IntersectionExampleScenario.node[12].veinsmobility 	stopTime 	71.25
scalar IntersectionExampleScenario.node[12].veinsmobility 	minSpeed 	0
scalar IntersectionExampleScenario.node[12].veinsmobility 	maxSpeed 	16
scalar IntersectionExampleScenario.node[12].veinsmobility 	totalDistance 	554.8038482666
scalar IntersectionExampleScenario.node[12].veinsmobility 	totalCO2Emission 	140.4120368733
scalar IntersectionExampleScenario.node[8].appl 	VehicleRemoved 	0
scalar IntersectionExampleScenario.node[8].appl 	ArrivedAtDest 	1
scalar IntersectionExampleScenario.node[8].appl 	IntersectionEnterTime 	13.75
scalar IntersectionExampleScenario.node[8].appl 	IntersectionExitTime 	54.535125206661
scalar IntersectionExampleScenario.node[8].appl 	NumberOfCollisions 	0
scalar IntersectionExampleScenario.node[8].nic.phy80211p 	busyTime 	0
scalar IntersectionExampleScenario.node[8].nic.mac1609_4 	ReceivedUnicastPackets 	0
scalar IntersectionExampleScenario.node[8].nic.mac1609_4 	ReceivedBroadcasts 	0
scalar IntersectionExampleScenario.node[8].nic.mac1609_4 	SentPackets 	0
scalar IntersectionExampleScenario.node[8].nic.mac1609_4 	SNIRLostPackets 	0
scalar IntersectionExampleScenario.node[8].nic.mac1609_4 	RXTXLostPackets 	0
scalar IntersectionExampleScenario.node[8].nic.mac1609_4 	TotalLostPackets 	0
scalar IntersectionExampleScenario.node[8].nic.mac1609_4 	DroppedPacketsInMac 	0
scalar IntersectionExampleScenario.node[8].nic.mac1609_4 	TooLittleTime 	0
scalar IntersectionExampleScenario.node[8].nic.mac1609_4 	TimesIntoBackoff 	0
scalar IntersectionExampleScenario.node[8].nic.mac1609_4 	SlotsBackoff 	0
scalar IntersectionExampleScenario.node[8].nic.mac1609_4 	NumInternalContention 	0
scalar IntersectionExampleScenario.node[8].nic.mac1609_4 	totalBusyTime 	0
scalar IntersectionExampleScenario.node[8].veinsmobility 	startTime 	13.75
scalar IntersectionExampleScenario.node[8].veinsmobility 	totalTime 	57.5
scalar IntersectionExampleScenario.node[8].veinsmobility 	stopTime 	71.5
scalar IntersectionExampleScenario.node[8].veinsmobility 	minSpeed 	0
scalar IntersectionExampleScenario.node[8].veinsmobility 	maxSpeed 	15.64999961853
scalar IntersectionExampleScenario.node[8].veinsmobility 	totalDistance 	521.6990041867
scalar IntersectionExampleScenario.node[8].veinsmobility 	totalCO2Emission 	147.12697514468
scalar IntersectionExampleScenario.node[7].appl 	VehicleRemoved 	0
scalar IntersectionExampleScenario.node[7].appl 	ArrivedAtDest 	1
scalar IntersectionExampleScenario.node[7].appl 	IntersectionEnterTime 	13.5
scalar IntersectionExampleScenario.node[7].appl 	IntersectionExitTime 	56.515777993394
scalar IntersectionExampleScenario.node[7].appl 	NumberOfCollisions 	0
scalar IntersectionExampleScenario.node[7].nic.phy80211p 	busyTime 	0
scalar IntersectionExampleScenario.node[7].nic.mac1609_4 	ReceivedUnicastPackets 	0
scalar IntersectionExampleScenario.node[7].nic.mac1609_4 	ReceivedBroadcasts 	0
scalar IntersectionExampleScenario.node[7].nic.mac1609_4 	SentPackets 	0
scalar IntersectionExampleScenario.node[7].nic.mac1609_4 	SNIRLostPackets 	0
scalar IntersectionExampleScenario.node[7].nic.mac1609_4 	RXTXLostPackets 	0
scalar IntersectionExampleScenario.node[7].nic.mac1609_4 	TotalLostPackets 	0
scalar IntersectionExampleScenario.node[7].nic.mac1609_4 	DroppedPacketsInMac 	0
scalar IntersectionExampleScenario.node[7].nic.mac1609_4 	TooLittleTime 	0
scalar IntersectionExampleScenario.node[7].nic.mac1609_4 	TimesIntoBackoff 	0
scalar IntersectionExampleScenario.node[7].nic.mac1609_4 	SlotsBackoff 	0
scalar IntersectionExampleScenario.node[7].nic.mac1609_4 	NumInternalContention 	0
scalar IntersectionExampleScenario.node[7].nic.mac1609_4 	totalBusyTime 	0
scalar IntersectionExampleScenario.node[7].veinsmobility 	startTime 	13.5
scalar IntersectionExampleScenario.node[7].veinsmobility 	totalTime 	59.75
scalar IntersectionExampleScenario.node[7].veinsmobility 	stopTime 	73.5
scalar IntersectionExampleScenario.node[7].veinsmobility 	minSpeed 	-1.1174232959747
scalar IntersectionExampleScenario.node[7].veinsmobility 	maxSpeed 	15.554745674133
scalar IntersectionExampleScenario.node[7].veinsmobility 	totalDistance 	552.21229633058
scalar IntersectionExampleScenario.node[7].veinsmobility 	totalCO2Emission 	154.6556994894
scalar IntersectionExampleScenario.node[16].appl 	VehicleRemoved 	0
scalar IntersectionExampleScenario.node[16].appl 	ArrivedAtDest 	1
scalar IntersectionExampleScenario.node[16].appl 	IntersectionEnterTime 	31.75
scalar IntersectionExampleScenario.node[16].appl 	IntersectionExitTime 	57.042218018352
scalar IntersectionExampleScenario.node[16].appl 	NumberOfCollisions 	0
scalar IntersectionExampleScenario.node[16].nic.phy80211p 	busyTime 	0
scalar IntersectionExampleScenario.node[16].nic.mac1609_4 	ReceivedUnicastPackets 	0
scalar IntersectionExampleScenario.node[16].nic.mac1609_4 	ReceivedBroadcasts 	0
scalar IntersectionExampleScenario.node[16].nic.mac1609_4 	SentPackets 	0
scalar IntersectionExampleScenario.node[16].nic.mac1609_4 	SNIRLostPackets 	0
scalar IntersectionExampleScenario.node[16].nic.mac1609_4 	RXTXLostPackets 	0
scalar IntersectionExampleScenario.node[16].nic.mac1609_4 	TotalLostPackets 	0
scalar IntersectionExampleScenario.node[16].nic.mac1609_4 	DroppedPacketsInMac 	0
scalar IntersectionExampleScenario.node[16].nic.mac1609_4 	TooLittleTime 	0
scalar IntersectionExampleScenario.node[16].nic.mac1609_4 	TimesIntoBackoff 	0
scalar IntersectionExampleScenario.node[16].nic.mac1609_4 	SlotsBackoff 	0
scalar IntersectionExampleScenario.node[16].nic.mac1609_4 	NumInternalContention 	0
scalar IntersectionExampleScenario.node[16].nic.mac1609_4 	totalBusyTime 	0
scalar IntersectionExampleScenario.node[16].veinsmobility 	startTime 	31.75
scalar IntersectionExampleScenario.node[16].veinsmobility 	totalTime 	42
scalar IntersectionExampleScenario.node[16].veinsmobility 	stopTime 	74
scalar IntersectionExampleScenario.node[16].veinsmobility 	minSpeed 	5.6500000953674
scalar IntersectionExampleScenario.node[16].veinsmobility 	maxSpeed 	15.64999961853
scalar IntersectionExampleScenario.node[16].veinsmobility 	totalDistance 	545.15688374032
scalar IntersectionExampleScenario.node[16].veinsmobility 	totalCO2Emission 	133.73094879543
scalar IntersectionExampleScenario.node[18].appl 	VehicleRemoved 	0
scalar IntersectionExampleScenario.node[18].appl 	ArrivedAtDest 	1
scalar IntersectionExampleScenario.node[18].appl 	IntersectionEnterTime 	35
scalar IntersectionExampleScenario.node[18].appl 	IntersectionExitTime 	59.371084298095
scalar IntersectionExampleScenario.node[18].appl 	NumberOfCollisions 	0
scalar IntersectionExampleScenario.node[18].nic.phy80211p 	busyTime 	0
scalar IntersectionExampleScenario.node[18].nic.mac1609_4 	ReceivedUnicastPackets 	0
scalar IntersectionExampleScenario.node[18].nic.mac1609_4 	ReceivedBroadcasts 	0
scalar IntersectionExampleScenario.node[18].nic.mac1609_4 	SentPackets 	0
scalar IntersectionExampleScenario.node[18].nic.mac1609_4 	SNIRLostPackets 	0
scalar IntersectionExampleScenario.node[18].nic.mac1609_4 	RXTXLostPackets 	0
scalar IntersectionExampleScenario.node[18].nic.mac1609_4 	TotalLostPackets 	0
scalar IntersectionExampleScenario.node[18].nic.mac1609_4 	DroppedPacketsInMac 	0
scalar IntersectionExampleScenario.node[18].nic.mac1609_4 	TooLittleTime 	0
scalar IntersectionExampleScenario.node[18].nic.mac1609_4 	TimesIntoBackoff 	0
scalar IntersectionExampleScenario.node[18].nic.mac1609_4 	SlotsBackoff 	0
scalar IntersectionExampleScenario.node[18].nic.mac1609_4 	NumInternalContention 	0
scalar IntersectionExampleScenario.node[18].nic.mac1609_4 	totalBusyTime 	0
scalar IntersectionExampleScenario.node[18].veinsmobility 	startTime 	35
scalar IntersectionExampleScenario.node[18].veinsmobility 	totalTime 	39.25
scalar IntersectionExampleScenario.node[18].veinsmobility 	stopTime 	74.5
scalar IntersectionExampleScenario.node[18].veinsmobility 	minSpeed 	5.6500000953674
scalar IntersectionExampleScenario.node[18].veinsmobility 	maxSpeed 	16.343883514404
scalar IntersectionExampleScenario.node[18].veinsmobility 	totalDistance 	562.50018310547
scalar IntersectionExampleScenario.node[18].veinsmobility 	totalCO2Emission 	146.02381466827
scalar IntersectionExampleScenario.node[15].appl 	VehicleRemoved 	0
scalar IntersectionExampleScenario.node[15].appl 	ArrivedAtDest 	1
scalar IntersectionExampleScenario.node[15].appl 	IntersectionEnterTime 	31.25
scalar IntersectionExampleScenario.node[15].appl 	IntersectionExitTime 	58.009734733525
scalar IntersectionExampleScenario.node[15].appl 	NumberOfCollisions 	0
scalar IntersectionExampleScenario.node[15].nic.phy80211p 	busyTime 	0
scalar IntersectionExampleScenario.node[15].nic.mac1609_4 	ReceivedUnicastPackets 	0
scalar IntersectionExampleScenario.node[15].nic.mac1609_4 	ReceivedBroadcasts 	0
scalar IntersectionExampleScenario.node[15].nic.mac1609_4 	SentPackets 	0
scalar IntersectionExampleScenario.node[15].nic.mac1609_4 	SNIRLostPackets 	0
scalar IntersectionExampleScenario.node[15].nic.mac1609_4 	RXTXLostPackets 	0
scalar IntersectionExampleScenario.node[15].nic.mac1609_4 	TotalLostPackets 	0
scalar IntersectionExampleScenario.node[15].nic.mac1609_4 	DroppedPacketsInMac 	0
scalar IntersectionExampleScenario.node[15].nic.mac1609_4 	TooLittleTime 	0
scalar IntersectionExampleScenario.node[15].nic.mac1609_4 	TimesIntoBackoff 	0
scalar IntersectionExampleScenario.node[15].nic.mac1609_4 	SlotsBackoff 	0
scalar IntersectionExampleScenario.node[15].nic.mac1609_4 	NumInternalContention 	0
scalar IntersectionExampleScenario.node[15].nic.mac1609_4 	totalBusyTime 	0
scalar IntersectionExampleScenario.node[15].veinsmobility 	startTime 	31.25
scalar IntersectionExampleScenario.node[15].veinsmobility 	totalTime 	43
scalar IntersectionExampleScenario.node[15].veinsmobility 	stopTime 	74.5
scalar IntersectionExampleScenario.node[15].veinsmobility 	minSpeed 	5.5288166999817
scalar IntersectionExampleScenario.node[15].veinsmobility 	maxSpeed 	15.5
scalar IntersectionExampleScenario.node[15].veinsmobility 	totalDistance 	552.17667388916
scalar IntersectionExampleScenario.node[15].veinsmobility 	totalCO2Emission 	131.25141101488
scalar IntersectionExampleScenario.node[17].appl 	VehicleRemoved 	0
scalar IntersectionExampleScenario.node[17].appl 	ArrivedAtDest 	1
scalar IntersectionExampleScenario.node[17].appl 	IntersectionEnterTime 	32
scalar IntersectionExampleScenario.node[17].appl 	IntersectionExitTime 	60.516083014925
scalar IntersectionExampleScenario.node[17].appl 	NumberOfCollisions 	0
scalar IntersectionExampleScenario.node[17].nic.phy80211p 	busyTime 	0
scalar IntersectionExampleScenario.node[17].nic.mac1609_4 	ReceivedUnicastPackets 	0
scalar IntersectionExampleScenario.node[17].nic.mac1609_4 	ReceivedBroadcasts 	0
scalar IntersectionExampleScenario.node[17].nic.mac1609_4 	SentPackets 	0
scalar IntersectionExampleScenario.node[17].nic.mac1609_4 	SNIRLostPackets 	0
scalar IntersectionExampleScenario.node[17].nic.mac1609_4 	RXTXLostPackets 	0
scalar IntersectionExampleScenario.node[17].nic.mac1609_4 	TotalLostPackets 	0
scalar IntersectionExampleScenario.node[17].nic.mac1609_4 	DroppedPacketsInMac 	0
scalar IntersectionExampleScenario.node[17].nic.mac1609_4 	TooLittleTime 	0
scalar IntersectionExampleScenario.node[17].nic.mac1609_4 	TimesIntoBackoff 	0
scalar IntersectionExampleScenario.node[17].nic.mac1609_4 	SlotsBackoff 	0
scalar IntersectionExampleScenario.node[17].nic.mac1609_4 	NumInternalContention 	0
scalar IntersectionExampleScenario.node[17].nic.mac1609_4 	totalBusyTime 	0
scalar IntersectionExampleScenario.node[17].veinsmobility 	startTime 	32
scalar IntersectionExampleScenario.node[17].veinsmobility 	totalTime 	45
scalar IntersectionExampleScenario.node[17].veinsmobility 	stopTime 	77.25
scalar IntersectionExampleScenario.node[17].veinsmobility 	minSpeed 	4.5787463188171
scalar IntersectionExampleScenario.node[17].veinsmobility 	maxSpeed 	15.375
scalar IntersectionExampleScenario.node[17].veinsmobility 	totalDistance 	572.80072876581
scalar IntersectionExampleScenario.node[17].veinsmobility 	totalCO2Emission 	143.13307489246
scalar IntersectionExampleScenario.node[21].appl 	VehicleRemoved 	0
scalar IntersectionExampleScenario.node[21].appl 	ArrivedAtDest 	1
scalar IntersectionExampleScenario.node[21].appl 	IntersectionEnterTime 	39.75
scalar IntersectionExampleScenario.node[21].appl 	IntersectionExitTime 	63.603696232312
scalar IntersectionExampleScenario.node[21].appl 	NumberOfCollisions 	0
scalar IntersectionExampleScenario.node[21].nic.phy80211p 	busyTime 	0
scalar IntersectionExampleScenario.node[21].nic.mac1609_4 	ReceivedUnicastPackets 	0
scalar IntersectionExampleScenario.node[21].nic.mac1609_4 	ReceivedBroadcasts 	0
scalar IntersectionExampleScenario.node[21].nic.mac1609_4 	SentPackets 	0
scalar IntersectionExampleScenario.node[21].nic.mac1609_4 	SNIRLostPackets 	0
scalar IntersectionExampleScenario.node[21].nic.mac1609_4 	RXTXLostPackets 	0
scalar IntersectionExampleScenario.node[21].nic.mac1609_4 	TotalLostPackets 	0
scalar IntersectionExampleScenario.node[21].nic.mac1609_4 	DroppedPacketsInMac 	0
scalar IntersectionExampleScenario.node[21].nic.mac1609_4 	TooLittleTime 	0
scalar IntersectionExampleScenario.node[21].nic.mac1609_4 	TimesIntoBackoff 	0
scalar IntersectionExampleScenario.node[21].nic.mac1609_4 	SlotsBackoff 	0
scalar IntersectionExampleScenario.node[21].nic.mac1609_4 	NumInternalContention 	0
scalar IntersectionExampleScenario.node[21].nic.mac1609_4 	totalBusyTime 	0
scalar IntersectionExampleScenario.node[21].veinsmobility 	startTime 	39.75
scalar IntersectionExampleScenario.node[21].veinsmobility 	totalTime 	39.5
scalar IntersectionExampleScenario.node[21].veinsmobility 	stopTime 	79.5
scalar IntersectionExampleScenario.node[21].veinsmobility 	minSpeed 	5.6500000953674
scalar IntersectionExampleScenario.node[21].veinsmobility 	maxSpeed 	16.450963973999
scalar IntersectionExampleScenario.node[21].veinsmobility 	totalDistance 	543.46926814314
scalar IntersectionExampleScenario.node[21].veinsmobility 	totalCO2Emission 	141.69644522821
scalar IntersectionExampleScenario.node[11].appl 	VehicleRemoved 	0
scalar IntersectionExampleScenario.node[11].appl 	ArrivedAtDest 	1
scalar IntersectionExampleScenario.node[11].appl 	IntersectionEnterTime 	25.5
scalar IntersectionExampleScenario.node[11].appl 	IntersectionExitTime 	68.256872427039
scalar IntersectionExampleScenario.node[11].appl 	NumberOfCollisions 	0
scalar IntersectionExampleScenario.node[11].nic.phy80211p 	busyTime 	0
scalar IntersectionExampleScenario.node[11].nic.mac1609_4 	ReceivedUnicastPackets 	0
scalar IntersectionExampleScenario.node[11].nic.mac1609_4 	ReceivedBroadcasts 	0
scalar IntersectionExampleScenario.node[11].nic.mac1609_4 	SentPackets 	0
scalar IntersectionExampleScenario.node[11].nic.mac1609_4 	SNIRLostPackets 	0
scalar IntersectionExampleScenario.node[11].nic.mac1609_4 	RXTXLostPackets 	0
scalar IntersectionExampleScenario.node[11].nic.mac1609_4 	TotalLostPackets 	0
scalar IntersectionExampleScenario.node[11].nic.mac1609_4 	DroppedPacketsInMac 	0
scalar IntersectionExampleScenario.node[11].nic.mac1609_4 	TooLittleTime 	0
scalar IntersectionExampleScenario.node[11].nic.mac1609_4 	TimesIntoBackoff 	0
scalar IntersectionExampleScenario.node[11].nic.mac1609_4 	SlotsBackoff 	0
scalar IntersectionExampleScenario.node[11].nic.mac1609_4 	NumInternalContention 	0
scalar IntersectionExampleScenario.node[11].nic.mac1609_4 	totalBusyTime 	0
scalar IntersectionExampleScenario.node[11].veinsmobility 	startTime 	25.5
scalar IntersectionExampleScenario.node[11].veinsmobility 	totalTime 	59
scalar IntersectionExampleScenario.node[11].veinsmobility 	stopTime 	84.75
scalar IntersectionExampleScenario.node[11].veinsmobility 	minSpeed 	0
scalar IntersectionExampleScenario.node[11].veinsmobility 	maxSpeed 	15.375
scalar IntersectionExampleScenario.node[11].veinsmobility 	totalDistance 	550.42301286807
scalar IntersectionExampleScenario.node[11].veinsmobility 	totalCO2Emission 	149.6430166897
scalar IntersectionExampleScenario.node[20].appl 	VehicleRemoved 	0
scalar IntersectionExampleScenario.node[20].appl 	ArrivedAtDest 	1
scalar IntersectionExampleScenario.node[20].appl 	IntersectionEnterTime 	39.5
scalar IntersectionExampleScenario.node[20].appl 	IntersectionExitTime 	69.564375093032
scalar IntersectionExampleScenario.node[20].appl 	NumberOfCollisions 	0
scalar IntersectionExampleScenario.node[20].nic.phy80211p 	busyTime 	0
scalar IntersectionExampleScenario.node[20].nic.mac1609_4 	ReceivedUnicastPackets 	0
scalar IntersectionExampleScenario.node[20].nic.mac1609_4 	ReceivedBroadcasts 	0
scalar IntersectionExampleScenario.node[20].nic.mac1609_4 	SentPackets 	0
scalar IntersectionExampleScenario.node[20].nic.mac1609_4 	SNIRLostPackets 	0
scalar IntersectionExampleScenario.node[20].nic.mac1609_4 	RXTXLostPackets 	0
scalar IntersectionExampleScenario.node[20].nic.mac1609_4 	TotalLostPackets 	0
scalar IntersectionExampleScenario.node[20].nic.mac1609_4 	DroppedPacketsInMac 	0
scalar IntersectionExampleScenario.node[20].nic.mac1609_4 	TooLittleTime 	0
scalar IntersectionExampleScenario.node[20].nic.mac1609_4 	TimesIntoBackoff 	0
scalar IntersectionExampleScenario.node[20].nic.mac1609_4 	SlotsBackoff 	0
scalar IntersectionExampleScenario.node[20].nic.mac1609_4 	NumInternalContention 	0
scalar IntersectionExampleScenario.node[20].nic.mac1609_4 	totalBusyTime 	0
scalar IntersectionExampleScenario.node[20].veinsmobility 	startTime 	39.5
scalar IntersectionExampleScenario.node[20].veinsmobility 	totalTime 	45.75
scalar IntersectionExampleScenario.node[20].veinsmobility 	stopTime 	85.5
scalar IntersectionExampleScenario.node[20].veinsmobility 	minSpeed 	2.547958612442
scalar IntersectionExampleScenario.node[20].veinsmobility 	maxSpeed 	15.64999961853
scalar IntersectionExampleScenario.node[20].veinsmobility 	totalDistance 	552.91571044922
scalar IntersectionExampleScenario.node[20].veinsmobility 	totalCO2Emission 	136.1916779604
scalar IntersectionExampleScenario.node[23].appl 	VehicleRemoved 	0
scalar IntersectionExampleScenario.node[23].appl 	ArrivedAtDest 	1
scalar IntersectionExampleScenario.node[23].appl 	IntersectionEnterTime 	41.5
scalar IntersectionExampleScenario.node[23].appl 	IntersectionExitTime 	72.070343057101
scalar IntersectionExampleScenario.node[23].appl 	NumberOfCollisions 	0
scalar IntersectionExampleScenario.node[23].nic.phy80211p 	busyTime 	0
scalar IntersectionExampleScenario.node[23].nic.mac1609_4 	ReceivedUnicastPackets 	0
scalar IntersectionExampleScenario.node[23].nic.mac1609_4 	ReceivedBroadcasts 	0
scalar IntersectionExampleScenario.node[23].nic.mac1609_4 	SentPackets 	0
scalar IntersectionExampleScenario.node[23].nic.mac1609_4 	SNIRLostPackets 	0
scalar IntersectionExampleScenario.node[23].nic.mac1609_4 	RXTXLostPackets 	0
scalar IntersectionExampleScenario.node[23].nic.mac1609_4 	TotalLostPackets 	0
scalar IntersectionExampleScenario.node[23].nic.mac1609_4 	DroppedPacketsInMac 	0
scalar IntersectionExampleScenario.node[23].nic.mac1609_4 	TooLittleTime 	0
scalar IntersectionExampleScenario.node[23].nic.mac1609_4 	TimesIntoBackoff 	0
scalar IntersectionExampleScenario.node[23].nic.mac1609_4 	SlotsBackoff 	0
scalar IntersectionExampleScenario.node[23].nic.mac1609_4 	NumInternalContention 	0
scalar IntersectionExampleScenario.node[23].nic.mac1609_4 	totalBusyTime 	0
scalar IntersectionExampleScenario.node[23].veinsmobility 	startTime 	41.5
scalar IntersectionExampleScenario.node[23].veinsmobility 	totalTime 	46.75
scalar IntersectionExampleScenario.node[23].veinsmobility 	stopTime 	88.5
scalar IntersectionExampleScenario.node[23].veinsmobility 	minSpeed 	4.3093137741089
scalar IntersectionExampleScenario.node[23].veinsmobility 	maxSpeed 	15.5
scalar IntersectionExampleScenario.node[23].veinsmobility 	totalDistance 	572.49421691895
scalar IntersectionExampleScenario.node[23].veinsmobility 	totalCO2Emission 	136.35292271191
scalar IntersectionExampleScenario.node[14].appl 	VehicleRemoved 	0
scalar IntersectionExampleScenario.node[14].appl 	ArrivedAtDest 	1
scalar IntersectionExampleScenario.node[14].appl 	IntersectionEnterTime 	30
scalar IntersectionExampleScenario.node[14].appl 	IntersectionExitTime 	77.566410343687
scalar IntersectionExampleScenario.node[14].appl 	NumberOfCollisions 	0
scalar IntersectionExampleScenario.node[14].nic.phy80211p 	busyTime 	0
scalar IntersectionExampleScenario.node[14].nic.mac1609_4 	ReceivedUnicastPackets 	0
scalar IntersectionExampleScenario.node[14].nic.mac1609_4 	ReceivedBroadcasts 	0
scalar IntersectionExampleScenario.node[14].nic.mac1609_4 	SentPackets 	0
scalar IntersectionExampleScenario.node[14].nic.mac1609_4 	SNIRLostPackets 	0
scalar IntersectionExampleScenario.node[14].nic.mac1609_4 	RXTXLostPackets 	0
scalar IntersectionExampleScenario.node[14].nic.mac1609_4 	TotalLostPackets 	0
scalar IntersectionExampleScenario.node[14].nic.mac1609_4 	DroppedPacketsInMac 	0
scalar IntersectionExampleScenario.node[14].nic.mac1609_4 	TooLittleTime 	0
scalar IntersectionExampleScenario.node[14].nic.mac1609_4 	TimesIntoBackoff 	0
scalar IntersectionExampleScenario.node[14].nic.mac1609_4 	SlotsBackoff 	0
scalar IntersectionExampleScenario.node[14].nic.mac1609_4 	NumInternalContention 	0
scalar IntersectionExampleScenario.node[14].nic.mac1609_4 	totalBusyTime 	0
scalar IntersectionExampleScenario.node[14].veinsmobility 	startTime 	30
scalar IntersectionExampleScenario.node[14].veinsmobility 	totalTime 	64
scalar IntersectionExampleScenario.node[14].veinsmobility 	stopTime 	94.25
scalar IntersectionExampleScenario.node[14].veinsmobility 	minSpeed 	0
scalar IntersectionExampleScenario.node[14].veinsmobility 	maxSpeed 	15.875
scalar IntersectionExampleScenario.node[14].veinsmobility 	totalDistance 	558.62207700164
scalar IntersectionExampleScenario.node[14].veinsmobility 	totalCO2Emission 	159.65407915409
scalar IntersectionExampleScenario.node[19].appl 	VehicleRemoved 	0
scalar IntersectionExampleScenario.node[19].appl 	ArrivedAtDest 	1
scalar IntersectionExampleScenario.node[19].appl 	IntersectionEnterTime 	37.5
scalar IntersectionExampleScenario.node[19].appl 	IntersectionExitTime 	79.346126349672
scalar IntersectionExampleScenario.node[19].appl 	NumberOfCollisions 	0
scalar IntersectionExampleScenario.node[19].nic.phy80211p 	busyTime 	0
scalar IntersectionExampleScenario.node[19].nic.mac1609_4 	ReceivedUnicastPackets 	0
scalar IntersectionExampleScenario.node[19].nic.mac1609_4 	ReceivedBroadcasts 	0
scalar IntersectionExampleScenario.node[19].nic.mac1609_4 	SentPackets 	0
scalar IntersectionExampleScenario.node[19].nic.mac1609_4 	SNIRLostPackets 	0
scalar IntersectionExampleScenario.node[19].nic.mac1609_4 	RXTXLostPackets 	0
scalar IntersectionExampleScenario.node[19].nic.mac1609_4 	TotalLostPackets 	0
scalar IntersectionExampleScenario.node[19].nic.mac1609_4 	DroppedPacketsInMac 	0
scalar IntersectionExampleScenario.node[19].nic.mac1609_4 	TooLittleTime 	0
scalar IntersectionExampleScenario.node[19].nic.mac1609_4 	TimesIntoBackoff 	0
scalar IntersectionExampleScenario.node[19].nic.mac1609_4 	SlotsBackoff 	0
scalar IntersectionExampleScenario.node[19].nic.mac1609_4 	NumInternalContention 	0
scalar IntersectionExampleScenario.node[19].nic.mac1609_4 	totalBusyTime 	0
scalar IntersectionExampleScenario.node[19].veinsmobility 	startTime 	37.5
scalar IntersectionExampleScenario.node[19].veinsmobility 	totalTime 	57.75
scalar IntersectionExampleScenario.node[19].veinsmobility 	stopTime 	95.5
scalar IntersectionExampleScenario.node[19].veinsmobility 	minSpeed 	0
scalar IntersectionExampleScenario.node[19].veinsmobility 	maxSpeed 	15.64999961853
scalar IntersectionExampleScenario.node[19].veinsmobility 	totalDistance 	551.93412017822
scalar IntersectionExampleScenario.node[19].veinsmobility 	totalCO2Emission 	147.70819528417
scalar IntersectionExampleScenario.node[22].appl 	VehicleRemoved 	0
scalar IntersectionExampleScenario.node[22].appl 	ArrivedAtDest 	1
scalar IntersectionExampleScenario.node[22].appl 	IntersectionEnterTime 	41.25
scalar IntersectionExampleScenario.node[22].appl 	IntersectionExitTime 	81.554365415883
scalar IntersectionExampleScenario.node[22].appl 	NumberOfCollisions 	0
scalar IntersectionExampleScenario.node[22].nic.phy80211p 	busyTime 	0
scalar IntersectionExampleScenario.node[22].nic.mac1609_4 	ReceivedUnicastPackets 	0
scalar IntersectionExampleScenario.node[22].nic.mac1609_4 	ReceivedBroadcasts 	0
scalar IntersectionExampleScenario.node[22].nic.mac1609_4 	SentPackets 	0
scalar IntersectionExampleScenario.node[22].nic.mac1609_4 	SNIRLostPackets 	0
scalar IntersectionExampleScenario.node[22].nic.mac1609_4 	RXTXLostPackets 	0
scalar IntersectionExampleScenario.node[22].nic.mac1609_4 	TotalLostPackets 	0
scalar IntersectionExampleScenario.node[22].nic.mac1609_4 	DroppedPacketsInMac 	0
scalar IntersectionExampleScenario.node[22].nic.mac1609_4 	TooLittleTime 	0
scalar IntersectionExampleScenario.node[22].nic.mac1609_4 	TimesIntoBackoff 	0
scalar IntersectionExampleScenario.node[22].nic.mac1609_4 	SlotsBackoff 	0
scalar IntersectionExampleScenario.node[22].nic.mac1609_4 	NumInternalContention 	0
scalar IntersectionExampleScenario.node[22].nic.mac1609_4 	totalBusyTime 	0
scalar IntersectionExampleScenario.node[22].veinsmobility 	startTime 	41.25
scalar IntersectionExampleScenario.node[22].veinsmobility 	totalTime 	56.5
scalar IntersectionExampleScenario.node[22].veinsmobility 	stopTime 	98
scalar IntersectionExampleScenario.node[22].veinsmobility 	minSpeed 	0
scalar IntersectionExampleScenario.node[22].veinsmobility 	maxSpeed 	15.358406066895
scalar IntersectionExampleScenario.node[22].veinsmobility 	totalDistance 	560.87668609619
scalar IntersectionExampleScenario.node[22].veinsmobility 	totalCO2Emission 	144.59904186224
scalar IntersectionExampleScenario.node[24].appl 	VehicleRemoved 	0
scalar IntersectionExampleScenario.node[24].appl 	ArrivedAtDest 	1
scalar IntersectionExampleScenario.node[24].appl 	IntersectionEnterTime 	43.25
scalar IntersectionExampleScenario.node[24].appl 	IntersectionExitTime 	83.757358805306
scalar IntersectionExampleScenario.node[24].appl 	NumberOfCollisions 	0
scalar IntersectionExampleScenario.node[24].nic.phy80211p 	busyTime 	0
scalar IntersectionExampleScenario.node[24].nic.mac1609_4 	ReceivedUnicastPackets 	0
scalar IntersectionExampleScenario.node[24].nic.mac1609_4 	ReceivedBroadcasts 	0
scalar IntersectionExampleScenario.node[24].nic.mac1609_4 	SentPackets 	0
scalar IntersectionExampleScenario.node[24].nic.mac1609_4 	SNIRLostPackets 	0
scalar IntersectionExampleScenario.node[24].nic.mac1609_4 	RXTXLostPackets 	0
scalar IntersectionExampleScenario.node[24].nic.mac1609_4 	TotalLostPackets 	0
scalar IntersectionExampleScenario.node[24].nic.mac1609_4 	DroppedPacketsInMac 	0
scalar IntersectionExampleScenario.node[24].nic.mac1609_4 	TooLittleTime 	0
scalar IntersectionExampleScenario.node[24].nic.mac1609_4 	TimesIntoBackoff 	0
scalar IntersectionExampleScenario.node[24].nic.mac1609_4 	SlotsBackoff 	0
scalar IntersectionExampleScenario.node[24].nic.mac1609_4 	NumInternalContention 	0
scalar IntersectionExampleScenario.node[24].nic.mac1609_4 	totalBusyTime 	0
scalar IntersectionExampleScenario.node[24].veinsmobility 	startTime 	43.25
scalar IntersectionExampleScenario.node[24].veinsmobility 	totalTime 	56
scalar IntersectionExampleScenario.node[24].veinsmobility 	stopTime 	99.5
scalar IntersectionExampleScenario.node[24].veinsmobility 	minSpeed 	0
scalar IntersectionExampleScenario.node[24].veinsmobility 	maxSpeed 	16.625
scalar IntersectionExampleScenario.node[24].veinsmobility 	totalDistance 	574.36128223799
scalar IntersectionExampleScenario.node[24].veinsmobility 	totalCO2Emission 	159.68240860958
scalar IntersectionExampleScenario.node[29].appl 	VehicleRemoved 	0
scalar IntersectionExampleScenario.node[29].appl 	ArrivedAtDest 	1
scalar IntersectionExampleScenario.node[29].appl 	IntersectionEnterTime 	55.75
scalar IntersectionExampleScenario.node[29].appl 	IntersectionExitTime 	85.527869915299
scalar IntersectionExampleScenario.node[29].appl 	NumberOfCollisions 	0
scalar IntersectionExampleScenario.node[29].nic.phy80211p 	busyTime 	0
scalar IntersectionExampleScenario.node[29].nic.mac1609_4 	ReceivedUnicastPackets 	0
scalar IntersectionExampleScenario.node[29].nic.mac1609_4 	ReceivedBroadcasts 	0
scalar IntersectionExampleScenario.node[29].nic.mac1609_4 	SentPackets 	0
scalar IntersectionExampleScenario.node[29].nic.mac1609_4 	SNIRLostPackets 	0
scalar IntersectionExampleScenario.node[29].nic.mac1609_4 	RXTXLostPackets 	0
scalar IntersectionExampleScenario.node[29].nic.mac1609_4 	TotalLostPackets 	0
scalar IntersectionExampleScenario.node[29].nic.mac1609_4 	DroppedPacketsInMac 	0
scalar IntersectionExampleScenario.node[29].nic.mac1609_4 	TooLittleTime 	0
scalar IntersectionExampleScenario.node[29].nic.mac1609_4 	TimesIntoBackoff 	0
scalar IntersectionExampleScenario.node[29].nic.mac1609_4 	SlotsBackoff 	0
scalar IntersectionExampleScenario.node[29].nic.mac1609_4 	NumInternalContention 	0
scalar IntersectionExampleScenario.node[29].nic.mac1609_4 	totalBusyTime 	0
scalar IntersectionExampleScenario.node[29].veinsmobility 	startTime 	55.75
scalar IntersectionExampleScenario.node[29].veinsmobility 	totalTime 	45.75
scalar IntersectionExampleScenario.node[29].veinsmobility 	stopTime 	101.75
scalar IntersectionExampleScenario.node[29].veinsmobility 	minSpeed 	4.0875773429871
scalar IntersectionExampleScenario.node[29].veinsmobility 	maxSpeed 	16.5
scalar IntersectionExampleScenario.node[29].veinsmobility 	totalDistance 	544.5081207315
scalar IntersectionExampleScenario.node[29].veinsmobility 	totalCO2Emission 	148.30484276464
scalar IntersectionExampleScenario.node[27].appl 	VehicleRemoved 	0
scalar IntersectionExampleScenario.node[27].appl 	ArrivedAtDest 	1
scalar IntersectionExampleScenario.node[27].appl 	IntersectionEnterTime 	52.25
scalar IntersectionExampleScenario.node[27].appl 	IntersectionExitTime 	87.345025580114
scalar IntersectionExampleScenario.node[27].appl 	NumberOfCollisions 	0
scalar IntersectionExampleScenario.node[27].nic.phy80211p 	busyTime 	0
scalar IntersectionExampleScenario.node[27].nic.mac1609_4 	ReceivedUnicastPackets 	0
scalar IntersectionExampleScenario.node[27].nic.mac1609_4 	ReceivedBroadcasts 	0
scalar IntersectionExampleScenario.node[27].nic.mac1609_4 	SentPackets 	0
scalar IntersectionExampleScenario.node[27].nic.mac1609_4 	SNIRLostPackets 	0
scalar IntersectionExampleScenario.node[27].nic.mac1609_4 	RXTXLostPackets 	0
scalar IntersectionExampleScenario.node[27].nic.mac1609_4 	TotalLostPackets 	0
scalar IntersectionExampleScenario.node[27].nic.mac1609_4 	DroppedPacketsInMac 	0
scalar IntersectionExampleScenario.node[27].nic.mac1609_4 	TooLittleTime 	0
scalar IntersectionExampleScenario.node[27].nic.mac1609_4 	TimesIntoBackoff 	0
scalar IntersectionExampleScenario.node[27].nic.mac1609_4 	SlotsBackoff 	0
scalar IntersectionExampleScenario.node[27].nic.mac1609_4 	NumInternalContention 	0
scalar IntersectionExampleScenario.node[27].nic.mac1609_4 	totalBusyTime 	0
scalar IntersectionExampleScenario.node[27].veinsmobility 	startTime 	52.25
scalar IntersectionExampleScenario.node[27].veinsmobility 	totalTime 	51.25
scalar IntersectionExampleScenario.node[27].veinsmobility 	stopTime 	103.75
scalar IntersectionExampleScenario.node[27].veinsmobility 	minSpeed 	0
scalar IntersectionExampleScenario.node[27].veinsmobility 	maxSpeed 	15.375
scalar IntersectionExampleScenario.node[27].veinsmobility 	totalDistance 	552.79933166504
scalar IntersectionExampleScenario.node[27].veinsmobility 	totalCO2Emission 	141.52366206543
scalar IntersectionExampleScenario.node[25].appl 	VehicleRemoved 	0
scalar IntersectionExampleScenario.node[25].appl 	ArrivedAtDest 	1
scalar IntersectionExampleScenario.node[25].appl 	IntersectionEnterTime 	45.5
scalar IntersectionExampleScenario.node[25].appl 	IntersectionExitTime 	87.795205054106
scalar IntersectionExampleScenario.node[25].appl 	NumberOfCollisions 	0
scalar IntersectionExampleScenario.node[25].nic.phy80211p 	busyTime 	0
scalar IntersectionExampleScenario.node[25].nic.mac1609_4 	ReceivedUnicastPackets 	0
scalar IntersectionExampleScenario.node[25].nic.mac1609_4 	ReceivedBroadcasts 	0
scalar IntersectionExampleScenario.node[25].nic.mac1609_4 	SentPackets 	0
scalar IntersectionExampleScenario.node[25].nic.mac1609_4 	SNIRLostPackets 	0
scalar IntersectionExampleScenario.node[25].nic.mac1609_4 	RXTXLostPackets 	0
scalar IntersectionExampleScenario.node[25].nic.mac1609_4 	TotalLostPackets 	0
scalar IntersectionExampleScenario.node[25].nic.mac1609_4 	DroppedPacketsInMac 	0
scalar IntersectionExampleScenario.node[25].nic.mac1609_4 	TooLittleTime 	0
scalar IntersectionExampleScenario.node[25].nic.mac1609_4 	TimesIntoBackoff 	0
scalar IntersectionExampleScenario.node[25].nic.mac1609_4 	SlotsBackoff 	0
scalar IntersectionExampleScenario.node[25].nic.mac1609_4 	NumInternalContention 	0
scalar IntersectionExampleScenario.node[25].nic.mac1609_4 	totalBusyTime 	0
scalar IntersectionExampleScenario.node[25].veinsmobility 	startTime 	45.5
scalar IntersectionExampleScenario.node[25].veinsmobility 	totalTime 	58.75
scalar IntersectionExampleScenario.node[25].veinsmobility 	stopTime 	104.5
scalar IntersectionExampleScenario.node[25].veinsmobility 	minSpeed 	0
scalar IntersectionExampleScenario.node[25].veinsmobility 	maxSpeed 	15.09384059906
scalar IntersectionExampleScenario.node[25].veinsmobility 	totalDistance 	551.46506500244
scalar IntersectionExampleScenario.node[25].veinsmobility 	totalCO2Emission 	149.0108546871
scalar IntersectionExampleScenario.node[26].appl 	VehicleRemoved 	0
scalar IntersectionExampleScenario.node[26].appl 	ArrivedAtDest 	1
scalar IntersectionExampleScenario.node[26].appl 	IntersectionEnterTime 	45.75
scalar IntersectionExampleScenario.node[26].appl 	IntersectionExitTime 	89.570376766525
scalar IntersectionExampleScenario.node[26].appl 	NumberOfCollisions 	0
scalar IntersectionExampleScenario.node[26].nic.phy80211p 	busyTime 	0
scalar IntersectionExampleScenario.node[26].nic.mac1609_4 	ReceivedUnicastPackets 	0
scalar IntersectionExampleScenario.node[26].nic.mac1609_4 	ReceivedBroadcasts 	0
scalar IntersectionExampleScenario.node[26].nic.mac1609_4 	SentPackets 	0
scalar IntersectionExampleScenario.node[26].nic.mac1609_4 	SNIRLostPackets 	0
scalar IntersectionExampleScenario.node[26].nic.mac1609_4 	RXTXLostPackets 	0
scalar IntersectionExampleScenario.node[26].nic.mac1609_4 	TotalLostPackets 	0
scalar IntersectionExampleScenario.node[26].nic.mac1609_4 	DroppedPacketsInMac 	0
scalar IntersectionExampleScenario.node[26].nic.mac1609_4 	TooLittleTime 	0
scalar IntersectionExampleScenario.node[26].nic.mac1609_4 	TimesIntoBackoff 	0
scalar IntersectionExampleScenario.node[26].nic.mac1609_4 	SlotsBackoff 	0
scalar IntersectionExampleScenario.node[26].nic.mac1609_4 	NumInternalContention 	0
scalar IntersectionExampleScenario.node[26].nic.mac1609_4 	totalBusyTime 	0
scalar IntersectionExampleScenario.node[26].veinsmobility 	startTime 	45.75
scalar IntersectionExampleScenario.node[26].veinsmobility 	totalTime 	60
scalar IntersectionExampleScenario.node[26].veinsmobility 	stopTime 	106
scalar IntersectionExampleScenario.node[26].veinsmobility 	minSpeed 	0
scalar IntersectionExampleScenario.node[26].veinsmobility 	maxSpeed 	15.688467025757
scalar IntersectionExampleScenario.node[26].veinsmobility 	totalDistance 	578.41493988037
scalar IntersectionExampleScenario.node[26].veinsmobility 	totalCO2Emission 	156.508276463
scalar IntersectionExampleScenario.node[33].appl 	VehicleRemoved 	0
scalar IntersectionExampleScenario.node[33].appl 	ArrivedAtDest 	1
scalar IntersectionExampleScenario.node[33].appl 	IntersectionEnterTime 	67.5
scalar IntersectionExampleScenario.node[33].appl 	IntersectionExitTime 	91.818732849439
scalar IntersectionExampleScenario.node[33].appl 	NumberOfCollisions 	0
scalar IntersectionExampleScenario.node[33].nic.phy80211p 	busyTime 	0
scalar IntersectionExampleScenario.node[33].nic.mac1609_4 	ReceivedUnicastPackets 	0
scalar IntersectionExampleScenario.node[33].nic.mac1609_4 	ReceivedBroadcasts 	0
scalar IntersectionExampleScenario.node[33].nic.mac1609_4 	SentPackets 	0
scalar IntersectionExampleScenario.node[33].nic.mac1609_4 	SNIRLostPackets 	0
scalar IntersectionExampleScenario.node[33].nic.mac1609_4 	RXTXLostPackets 	0
scalar IntersectionExampleScenario.node[33].nic.mac1609_4 	TotalLostPackets 	0
scalar IntersectionExampleScenario.node[33].nic.mac1609_4 	DroppedPacketsInMac 	0
scalar IntersectionExampleScenario.node[33].nic.mac1609_4 	TooLittleTime 	0
scalar IntersectionExampleScenario.node[33].nic.mac1609_4 	TimesIntoBackoff 	0
scalar IntersectionExampleScenario.node[33].nic.mac1609_4 	SlotsBackoff 	0
scalar IntersectionExampleScenario.node[33].nic.mac1609_4 	NumInternalContention 	0
scalar IntersectionExampleScenario.node[33].nic.mac1609_4 	totalBusyTime 	0
scalar IntersectionExampleScenario.node[33].veinsmobility 	startTime 	67.5
scalar IntersectionExampleScenario.node[33].veinsmobility 	totalTime 	40.75
scalar IntersectionExampleScenario.node[33].veinsmobility 	stopTime 	108.5
scalar IntersectionExampleScenario.node[33].veinsmobility 	minSpeed 	5.6500000953674
scalar IntersectionExampleScenario.node[33].veinsmobility 	maxSpeed 	15.875
scalar IntersectionExampleScenario.node[33].veinsmobility 	totalDistance 	545.99821882878
scalar IntersectionExampleScenario.node[33].veinsmobility 	totalCO2Emission 	143.84774059726
scalar IntersectionExampleScenario.node[34].appl 	VehicleRemoved 	0
scalar IntersectionExampleScenario.node[34].appl 	ArrivedAtDest 	1
scalar IntersectionExampleScenario.node[34].appl 	IntersectionEnterTime 	68.75
scalar IntersectionExampleScenario.node[34].appl 	IntersectionExitTime 	94.549121549731
scalar IntersectionExampleScenario.node[34].appl 	NumberOfCollisions 	0
scalar IntersectionExampleScenario.node[34].nic.phy80211p 	busyTime 	0
scalar IntersectionExampleScenario.node[34].nic.mac1609_4 	ReceivedUnicastPackets 	0
scalar IntersectionExampleScenario.node[34].nic.mac1609_4 	ReceivedBroadcasts 	0
scalar IntersectionExampleScenario.node[34].nic.mac1609_4 	SentPackets 	0
scalar IntersectionExampleScenario.node[34].nic.mac1609_4 	SNIRLostPackets 	0
scalar IntersectionExampleScenario.node[34].nic.mac1609_4 	RXTXLostPackets 	0
scalar IntersectionExampleScenario.node[34].nic.mac1609_4 	TotalLostPackets 	0
scalar IntersectionExampleScenario.node[34].nic.mac1609_4 	DroppedPacketsInMac 	0
scalar IntersectionExampleScenario.node[34].nic.mac1609_4 	TooLittleTime 	0
scalar IntersectionExampleScenario.node[34].nic.mac1609_4 	TimesIntoBackoff 	0
scalar IntersectionExampleScenario.node[34].nic.mac1609_4 	SlotsBackoff 	0
scalar IntersectionExampleScenario.node[34].nic.mac1609_4 	NumInternalContention 	0
scalar IntersectionExampleScenario.node[34].nic.mac1609_4 	totalBusyTime 	0
scalar IntersectionExampleScenario.node[34].veinsmobility 	startTime 	68.75
scalar IntersectionExampleScenario.node[34].veinsmobility 	totalTime 	42
scalar IntersectionExampleScenario.node[34].veinsmobility 	stopTime 	111
scalar IntersectionExampleScenario.node[34].veinsmobility 	minSpeed 	5.6500000953674
scalar IntersectionExampleScenario.node[34].veinsmobility 	maxSpeed 	15.64999961853
scalar IntersectionExampleScenario.node[34].veinsmobility 	totalDistance 	571.20789768699
scalar IntersectionExampleScenario.node[34].veinsmobility 	totalCO2Emission 	134.7913559215
scalar IntersectionExampleScenario.node[36].appl 	VehicleRemoved 	0
scalar IntersectionExampleScenario.node[36].appl 	ArrivedAtDest 	1
scalar IntersectionExampleScenario.node[36].appl 	IntersectionEnterTime 	70.25
scalar IntersectionExampleScenario.node[36].appl 	IntersectionExitTime 	96.092138497916
scalar IntersectionExampleScenario.node[36].appl 	NumberOfCollisions 	0
scalar IntersectionExampleScenario.node[36].nic.phy80211p 	busyTime 	0
scalar IntersectionExampleScenario.node[36].nic.mac1609_4 	ReceivedUnicastPackets 	0
scalar IntersectionExampleScenario.node[36].nic.mac1609_4 	ReceivedBroadcasts 	0
scalar IntersectionExampleScenario.node[36].nic.mac1609_4 	SentPackets 	0
scalar IntersectionExampleScenario.node[36].nic.mac1609_4 	SNIRLostPackets 	0
scalar IntersectionExampleScenario.node[36].nic.mac1609_4 	RXTXLostPackets 	0
scalar IntersectionExampleScenario.node[36].nic.mac1609_4 	TotalLostPackets 	0
scalar IntersectionExampleScenario.node[36].nic.mac1609_4 	DroppedPacketsInMac 	0
scalar IntersectionExampleScenario.node[36].nic.mac1609_4 	TooLittleTime 	0
scalar IntersectionExampleScenario.node[36].nic.mac1609_4 	TimesIntoBackoff 	0
scalar IntersectionExampleScenario.node[36].nic.mac1609_4 	SlotsBackoff 	0
scalar IntersectionExampleScenario.node[36].nic.mac1609_4 	NumInternalContention 	0
scalar IntersectionExampleScenario.node[36].nic.mac1609_4 	totalBusyTime 	0
scalar IntersectionExampleScenario.node[36].veinsmobility 	startTime 	70.25
scalar IntersectionExampleScenario.node[36].veinsmobility 	totalTime 	41.5
scalar IntersectionExampleScenario.node[36].veinsmobility 	stopTime 	112
scalar IntersectionExampleScenario.node[36].veinsmobility 	minSpeed 	5.6500000953674
scalar IntersectionExampleScenario.node[36].veinsmobility 	maxSpeed 	16.570457458496
scalar IntersectionExampleScenario.node[36].veinsmobility 	totalDistance 	580.31284973266
scalar IntersectionExampleScenario.node[36].veinsmobility 	totalCO2Emission 	142.62005613716
scalar IntersectionExampleScenario.node[28].appl 	VehicleRemoved 	0
scalar IntersectionExampleScenario.node[28].appl 	ArrivedAtDest 	1
scalar IntersectionExampleScenario.node[28].appl 	IntersectionEnterTime 	55.25
scalar IntersectionExampleScenario.node[28].appl 	IntersectionExitTime 	100.30129587857
scalar IntersectionExampleScenario.node[28].appl 	NumberOfCollisions 	0
scalar IntersectionExampleScenario.node[28].nic.phy80211p 	busyTime 	0
scalar IntersectionExampleScenario.node[28].nic.mac1609_4 	ReceivedUnicastPackets 	0
scalar IntersectionExampleScenario.node[28].nic.mac1609_4 	ReceivedBroadcasts 	0
scalar IntersectionExampleScenario.node[28].nic.mac1609_4 	SentPackets 	0
scalar IntersectionExampleScenario.node[28].nic.mac1609_4 	SNIRLostPackets 	0
scalar IntersectionExampleScenario.node[28].nic.mac1609_4 	RXTXLostPackets 	0
scalar IntersectionExampleScenario.node[28].nic.mac1609_4 	TotalLostPackets 	0
scalar IntersectionExampleScenario.node[28].nic.mac1609_4 	DroppedPacketsInMac 	0
scalar IntersectionExampleScenario.node[28].nic.mac1609_4 	TooLittleTime 	0
scalar IntersectionExampleScenario.node[28].nic.mac1609_4 	TimesIntoBackoff 	0
scalar IntersectionExampleScenario.node[28].nic.mac1609_4 	SlotsBackoff 	0
scalar IntersectionExampleScenario.node[28].nic.mac1609_4 	NumInternalContention 	0
scalar IntersectionExampleScenario.node[28].nic.mac1609_4 	totalBusyTime 	0
scalar IntersectionExampleScenario.node[28].veinsmobility 	startTime 	55.25
scalar IntersectionExampleScenario.node[28].veinsmobility 	totalTime 	60
scalar IntersectionExampleScenario.node[28].veinsmobility 	stopTime 	115.5
scalar IntersectionExampleScenario.node[28].veinsmobility 	minSpeed 	0
scalar IntersectionExampleScenario.node[28].veinsmobility 	maxSpeed 	16.89999961853
scalar IntersectionExampleScenario.node[28].veinsmobility 	totalDistance 	552.3815612793
scalar IntersectionExampleScenario.node[28].veinsmobility 	totalCO2Emission 	164.12038444365
scalar IntersectionExampleScenario.node[30].appl 	VehicleRemoved 	0
scalar IntersectionExampleScenario.node[30].appl 	ArrivedAtDest 	1
scalar IntersectionExampleScenario.node[30].appl 	IntersectionEnterTime 	57.25
scalar IntersectionExampleScenario.node[30].appl 	IntersectionExitTime 	110.31667478537
scalar IntersectionExampleScenario.node[30].appl 	NumberOfCollisions 	0
scalar IntersectionExampleScenario.node[30].nic.phy80211p 	busyTime 	0
scalar IntersectionExampleScenario.node[30].nic.mac1609_4 	ReceivedUnicastPackets 	0
scalar IntersectionExampleScenario.node[30].nic.mac1609_4 	ReceivedBroadcasts 	0
scalar IntersectionExampleScenario.node[30].nic.mac1609_4 	SentPackets 	0
scalar IntersectionExampleScenario.node[30].nic.mac1609_4 	SNIRLostPackets 	0
scalar IntersectionExampleScenario.node[30].nic.mac1609_4 	RXTXLostPackets 	0
scalar IntersectionExampleScenario.node[30].nic.mac1609_4 	TotalLostPackets 	0
scalar IntersectionExampleScenario.node[30].nic.mac1609_4 	DroppedPacketsInMac 	0
scalar IntersectionExampleScenario.node[30].nic.mac1609_4 	TooLittleTime 	0
scalar IntersectionExampleScenario.node[30].nic.mac1609_4 	TimesIntoBackoff 	0
scalar IntersectionExampleScenario.node[30].nic.mac1609_4 	SlotsBackoff 	0
scalar IntersectionExampleScenario.node[30].nic.mac1609_4 	NumInternalContention 	0
scalar IntersectionExampleScenario.node[30].nic.mac1609_4 	totalBusyTime 	0
scalar IntersectionExampleScenario.node[30].veinsmobility 	startTime 	57.25
scalar IntersectionExampleScenario.node[30].veinsmobility 	totalTime 	69.5
scalar IntersectionExampleScenario.node[30].veinsmobility 	stopTime 	127
scalar IntersectionExampleScenario.node[30].veinsmobility 	minSpeed 	0
scalar IntersectionExampleScenario.node[30].veinsmobility 	maxSpeed 	15.02499961853
scalar IntersectionExampleScenario.node[30].veinsmobility 	totalDistance 	572.06649780273
scalar IntersectionExampleScenario.node[30].veinsmobility 	totalCO2Emission 	166.35048997752
scalar IntersectionExampleScenario.node[31].appl 	VehicleRemoved 	0
scalar IntersectionExampleScenario.node[31].appl 	ArrivedAtDest 	1
scalar IntersectionExampleScenario.node[31].appl 	IntersectionEnterTime 	59
scalar IntersectionExampleScenario.node[31].appl 	IntersectionExitTime 	111.11288146707
scalar IntersectionExampleScenario.node[31].appl 	NumberOfCollisions 	0
scalar IntersectionExampleScenario.node[31].nic.phy80211p 	busyTime 	0
scalar IntersectionExampleScenario.node[31].nic.mac1609_4 	ReceivedUnicastPackets 	0
scalar IntersectionExampleScenario.node[31].nic.mac1609_4 	ReceivedBroadcasts 	0
scalar IntersectionExampleScenario.node[31].nic.mac1609_4 	SentPackets 	0
scalar IntersectionExampleScenario.node[31].nic.mac1609_4 	SNIRLostPackets 	0
scalar IntersectionExampleScenario.node[31].nic.mac1609_4 	RXTXLostPackets 	0
scalar IntersectionExampleScenario.node[31].nic.mac1609_4 	TotalLostPackets 	0
scalar IntersectionExampleScenario.node[31].nic.mac1609_4 	DroppedPacketsInMac 	0
scalar IntersectionExampleScenario.node[31].nic.mac1609_4 	TooLittleTime 	0
scalar IntersectionExampleScenario.node[31].nic.mac1609_4 	TimesIntoBackoff 	0
scalar IntersectionExampleScenario.node[31].nic.mac1609_4 	SlotsBackoff 	0
scalar IntersectionExampleScenario.node[31].nic.mac1609_4 	NumInternalContention 	0
scalar IntersectionExampleScenario.node[31].nic.mac1609_4 	totalBusyTime 	0
scalar IntersectionExampleScenario.node[31].veinsmobility 	startTime 	59
scalar IntersectionExampleScenario.node[31].veinsmobility 	totalTime 	68.75
scalar IntersectionExampleScenario.node[31].veinsmobility 	stopTime 	128
scalar IntersectionExampleScenario.node[31].veinsmobility 	minSpeed 	0
scalar IntersectionExampleScenario.node[31].veinsmobility 	maxSpeed 	15.25
scalar IntersectionExampleScenario.node[31].veinsmobility 	totalDistance 	572.99561283346
scalar IntersectionExampleScenario.node[31].veinsmobility 	totalCO2Emission 	164.88229424353
scalar IntersectionExampleScenario.node[32].appl 	VehicleRemoved 	0
scalar IntersectionExampleScenario.node[32].appl 	ArrivedAtDest 	1
scalar IntersectionExampleScenario.node[32].appl 	IntersectionEnterTime 	67
scalar IntersectionExampleScenario.node[32].appl 	IntersectionExitTime 	113.32237316633
scalar IntersectionExampleScenario.node[32].appl 	NumberOfCollisions 	0
scalar IntersectionExampleScenario.node[32].nic.phy80211p 	busyTime 	0
scalar IntersectionExampleScenario.node[32].nic.mac1609_4 	ReceivedUnicastPackets 	0
scalar IntersectionExampleScenario.node[32].nic.mac1609_4 	ReceivedBroadcasts 	0
scalar IntersectionExampleScenario.node[32].nic.mac1609_4 	SentPackets 	0
scalar IntersectionExampleScenario.node[32].nic.mac1609_4 	SNIRLostPackets 	0
scalar IntersectionExampleScenario.node[32].nic.mac1609_4 	RXTXLostPackets 	0
scalar IntersectionExampleScenario.node[32].nic.mac1609_4 	TotalLostPackets 	0
scalar IntersectionExampleScenario.node[32].nic.mac1609_4 	DroppedPacketsInMac 	0
scalar IntersectionExampleScenario.node[32].nic.mac1609_4 	TooLittleTime 	0
scalar IntersectionExampleScenario.node[32].nic.mac1609_4 	TimesIntoBackoff 	0
scalar IntersectionExampleScenario.node[32].nic.mac1609_4 	SlotsBackoff 	0
scalar IntersectionExampleScenario.node[32].nic.mac1609_4 	NumInternalContention 	0
scalar IntersectionExampleScenario.node[32].nic.mac1609_4 	totalBusyTime 	0
scalar IntersectionExampleScenario.node[32].veinsmobility 	startTime 	67
scalar IntersectionExampleScenario.node[32].veinsmobility 	totalTime 	62.5
scalar IntersectionExampleScenario.node[32].veinsmobility 	stopTime 	129.75
scalar IntersectionExampleScenario.node[32].veinsmobility 	minSpeed 	0
scalar IntersectionExampleScenario.node[32].veinsmobility 	maxSpeed 	15.205887794495
scalar IntersectionExampleScenario.node[32].veinsmobility 	totalDistance 	552.8772354126
scalar IntersectionExampleScenario.node[32].veinsmobility 	totalCO2Emission 	153.26601492293
scalar IntersectionExampleScenario.node[35].appl 	VehicleRemoved 	0
scalar IntersectionExampleScenario.node[35].appl 	ArrivedAtDest 	1
scalar IntersectionExampleScenario.node[35].appl 	IntersectionEnterTime 	69.25
scalar IntersectionExampleScenario.node[35].appl 	IntersectionExitTime 	115.82078526329
scalar IntersectionExampleScenario.node[35].appl 	NumberOfCollisions 	0
scalar IntersectionExampleScenario.node[35].nic.phy80211p 	busyTime 	0
scalar IntersectionExampleScenario.node[35].nic.mac1609_4 	ReceivedUnicastPackets 	0
scalar IntersectionExampleScenario.node[35].nic.mac1609_4 	ReceivedBroadcasts 	0
scalar IntersectionExampleScenario.node[35].nic.mac1609_4 	SentPackets 	0
scalar IntersectionExampleScenario.node[35].nic.mac1609_4 	SNIRLostPackets 	0
scalar IntersectionExampleScenario.node[35].nic.mac1609_4 	RXTXLostPackets 	0
scalar IntersectionExampleScenario.node[35].nic.mac1609_4 	TotalLostPackets 	0
scalar IntersectionExampleScenario.node[35].nic.mac1609_4 	DroppedPacketsInMac 	0
scalar IntersectionExampleScenario.node[35].nic.mac1609_4 	TooLittleTime 	0
scalar IntersectionExampleScenario.node[35].nic.mac1609_4 	TimesIntoBackoff 	0
scalar IntersectionExampleScenario.node[35].nic.mac1609_4 	SlotsBackoff 	0
scalar IntersectionExampleScenario.node[35].nic.mac1609_4 	NumInternalContention 	0
scalar IntersectionExampleScenario.node[35].nic.mac1609_4 	totalBusyTime 	0
scalar IntersectionExampleScenario.node[35].veinsmobility 	startTime 	69.25
scalar IntersectionExampleScenario.node[35].veinsmobility 	totalTime 	63.25
scalar IntersectionExampleScenario.node[35].veinsmobility 	stopTime 	132.75
scalar IntersectionExampleScenario.node[35].veinsmobility 	minSpeed 	0
scalar IntersectionExampleScenario.node[35].veinsmobility 	maxSpeed 	15.484924316406
scalar IntersectionExampleScenario.node[35].veinsmobility 	totalDistance 	563.08371186198
scalar IntersectionExampleScenario.node[35].veinsmobility 	totalCO2Emission 	161.17912290072
scalar IntersectionExampleScenario.node[38].appl 	VehicleRemoved 	0
scalar IntersectionExampleScenario.node[38].appl 	ArrivedAtDest 	1
scalar IntersectionExampleScenario.node[38].appl 	IntersectionEnterTime 	76.75
scalar IntersectionExampleScenario.node[38].appl 	IntersectionExitTime 	117.61549672359
scalar IntersectionExampleScenario.node[38].appl 	NumberOfCollisions 	0
scalar IntersectionExampleScenario.node[38].nic.phy80211p 	busyTime 	0
scalar IntersectionExampleScenario.node[38].nic.mac1609_4 	ReceivedUnicastPackets 	0
scalar IntersectionExampleScenario.node[38].nic.mac1609_4 	ReceivedBroadcasts 	0
scalar IntersectionExampleScenario.node[38].nic.mac1609_4 	SentPackets 	0
scalar IntersectionExampleScenario.node[38].nic.mac1609_4 	SNIRLostPackets 	0
scalar IntersectionExampleScenario.node[38].nic.mac1609_4 	RXTXLostPackets 	0
scalar IntersectionExampleScenario.node[38].nic.mac1609_4 	TotalLostPackets 	0
scalar IntersectionExampleScenario.node[38].nic.mac1609_4 	DroppedPacketsInMac 	0
scalar IntersectionExampleScenario.node[38].nic.mac1609_4 	TooLittleTime 	0
scalar IntersectionExampleScenario.node[38].nic.mac1609_4 	TimesIntoBackoff 	0
scalar IntersectionExampleScenario.node[38].nic.mac1609_4 	SlotsBackoff 	0
scalar IntersectionExampleScenario.node[38].nic.mac1609_4 	NumInternalContention 	0
scalar IntersectionExampleScenario.node[38].nic.mac1609_4 	totalBusyTime 	0
scalar IntersectionExampleScenario.node[38].veinsmobility 	startTime 	76.75
scalar IntersectionExampleScenario.node[38].veinsmobility 	totalTime 	56.5
scalar IntersectionExampleScenario.node[38].veinsmobility 	stopTime 	133.5
scalar IntersectionExampleScenario.node[38].veinsmobility 	minSpeed 	0
scalar IntersectionExampleScenario.node[38].veinsmobility 	maxSpeed 	15.64999961853
scalar IntersectionExampleScenario.node[38].veinsmobility 	totalDistance 	552.75925445557
scalar IntersectionExampleScenario.node[38].veinsmobility 	totalCO2Emission 	147.16919183993
scalar IntersectionExampleScenario.node[39].appl 	VehicleRemoved 	0
scalar IntersectionExampleScenario.node[39].appl 	ArrivedAtDest 	1
scalar IntersectionExampleScenario.node[39].appl 	IntersectionEnterTime 	77.75
scalar IntersectionExampleScenario.node[39].appl 	IntersectionExitTime 	119.29451851518
scalar IntersectionExampleScenario.node[39].appl 	NumberOfCollisions 	0
scalar IntersectionExampleScenario.node[39].nic.phy80211p 	busyTime 	0
scalar IntersectionExampleScenario.node[39].nic.mac1609_4 	ReceivedUnicastPackets 	0
scalar IntersectionExampleScenario.node[39].nic.mac1609_4 	ReceivedBroadcasts 	0
scalar IntersectionExampleScenario.node[39].nic.mac1609_4 	SentPackets 	0
scalar IntersectionExampleScenario.node[39].nic.mac1609_4 	SNIRLostPackets 	0
scalar IntersectionExampleScenario.node[39].nic.mac1609_4 	RXTXLostPackets 	0
scalar IntersectionExampleScenario.node[39].nic.mac1609_4 	TotalLostPackets 	0
scalar IntersectionExampleScenario.node[39].nic.mac1609_4 	DroppedPacketsInMac 	0
scalar IntersectionExampleScenario.node[39].nic.mac1609_4 	TooLittleTime 	0
scalar IntersectionExampleScenario.node[39].nic.mac1609_4 	TimesIntoBackoff 	0
scalar IntersectionExampleScenario.node[39].nic.mac1609_4 	SlotsBackoff 	0
scalar IntersectionExampleScenario.node[39].nic.mac1609_4 	NumInternalContention 	0
scalar IntersectionExampleScenario.node[39].nic.mac1609_4 	totalBusyTime 	0
scalar IntersectionExampleScenario.node[39].veinsmobility 	startTime 	77.75
scalar IntersectionExampleScenario.node[39].veinsmobility 	totalTime 	57
scalar IntersectionExampleScenario.node[39].veinsmobility 	stopTime 	135
scalar IntersectionExampleScenario.node[39].veinsmobility 	minSpeed 	0
scalar IntersectionExampleScenario.node[39].veinsmobility 	maxSpeed 	16.27499961853
scalar IntersectionExampleScenario.node[39].veinsmobility 	totalDistance 	551.08829498291
scalar IntersectionExampleScenario.node[39].veinsmobility 	totalCO2Emission 	154.61557847683
scalar IntersectionExampleScenario.node[40].appl 	VehicleRemoved 	0
scalar IntersectionExampleScenario.node[40].appl 	ArrivedAtDest 	1
scalar IntersectionExampleScenario.node[40].appl 	IntersectionEnterTime 	79.5
scalar IntersectionExampleScenario.node[40].appl 	IntersectionExitTime 	121.09089635618
scalar IntersectionExampleScenario.node[40].appl 	NumberOfCollisions 	0
scalar IntersectionExampleScenario.node[40].nic.phy80211p 	busyTime 	0
scalar IntersectionExampleScenario.node[40].nic.mac1609_4 	ReceivedUnicastPackets 	0
scalar IntersectionExampleScenario.node[40].nic.mac1609_4 	ReceivedBroadcasts 	0
scalar IntersectionExampleScenario.node[40].nic.mac1609_4 	SentPackets 	0
scalar IntersectionExampleScenario.node[40].nic.mac1609_4 	SNIRLostPackets 	0
scalar IntersectionExampleScenario.node[40].nic.mac1609_4 	RXTXLostPackets 	0
scalar IntersectionExampleScenario.node[40].nic.mac1609_4 	TotalLostPackets 	0
scalar IntersectionExampleScenario.node[40].nic.mac1609_4 	DroppedPacketsInMac 	0
scalar IntersectionExampleScenario.node[40].nic.mac1609_4 	TooLittleTime 	0
scalar IntersectionExampleScenario.node[40].nic.mac1609_4 	TimesIntoBackoff 	0
scalar IntersectionExampleScenario.node[40].nic.mac1609_4 	SlotsBackoff 	0
[...]
scalar IntersectionExampleScenario.node[66].veinsmobility 	minSpeed 	0
scalar IntersectionExampleScenario.node[66].veinsmobility 	maxSpeed 	15.831912994385
scalar IntersectionExampleScenario.node[66].veinsmobility 	totalDistance 	545.43511105925
scalar IntersectionExampleScenario.node[66].veinsmobility 	totalCO2Emission 	149.71947059222
scalar IntersectionExampleScenario.node[67].appl 	VehicleRemoved 	0
scalar IntersectionExampleScenario.node[67].appl 	ArrivedAtDest 	1
scalar IntersectionExampleScenario.node[67].appl 	IntersectionEnterTime 	146
scalar IntersectionExampleScenario.node[67].appl 	IntersectionExitTime 	183.54822382922
scalar IntersectionExampleScenario.node[67].appl 	NumberOfCollisions 	0
scalar IntersectionExampleScenario.node[67].nic.phy80211p 	busyTime 	0
scalar IntersectionExampleScenario.node[67].nic.mac1609_4 	ReceivedUnicastPackets 	0
scalar IntersectionExampleScenario.node[67].nic.mac1609_4 	ReceivedBroadcasts 	0
scalar IntersectionExampleScenario.node[67].nic.mac1609_4 	SentPackets 	0
scalar IntersectionExampleScenario.node[67].nic.mac1609_4 	SNIRLostPackets 	0
scalar IntersectionExampleScenario.node[67].nic.mac1609_4 	RXTXLostPackets 	0
scalar IntersectionExampleScenario.node[67].nic.mac1609_4 	TotalLostPackets 	0
scalar IntersectionExampleScenario.node[67].nic.mac1609_4 	DroppedPacketsInMac 	0
scalar IntersectionExampleScenario.node[67].nic.mac1609_4 	TooLittleTime 	0
scalar IntersectionExampleScenario.node[67].nic.mac1609_4 	TimesIntoBackoff 	0
scalar IntersectionExampleScenario.node[67].nic.mac1609_4 	SlotsBackoff 	0
scalar IntersectionExampleScenario.node[67].nic.mac1609_4 	NumInternalContention 	0
scalar IntersectionExampleScenario.node[67].nic.mac1609_4 	totalBusyTime 	0
scalar IntersectionExampleScenario.node[67].veinsmobility 	startTime 	146
scalar IntersectionExampleScenario.node[67].veinsmobility 	totalTime 	53.25
scalar IntersectionExampleScenario.node[67].veinsmobility 	stopTime 	199.5
scalar IntersectionExampleScenario.node[67].veinsmobility 	minSpeed 	0
scalar IntersectionExampleScenario.node[67].veinsmobility 	maxSpeed 	15.64999961853
scalar IntersectionExampleScenario.node[67].veinsmobility 	totalDistance 	552.99771881104
scalar IntersectionExampleScenario.node[67].veinsmobility 	totalCO2Emission 	148.44602935816
scalar IntersectionExampleScenario.node[68].appl 	VehicleRemoved 	0
scalar IntersectionExampleScenario.node[68].appl 	ArrivedAtDest 	1
scalar IntersectionExampleScenario.node[68].appl 	IntersectionEnterTime 	146.75
scalar IntersectionExampleScenario.node[68].appl 	IntersectionExitTime 	183.87429660707
scalar IntersectionExampleScenario.node[68].appl 	NumberOfCollisions 	0
scalar IntersectionExampleScenario.node[68].nic.phy80211p 	busyTime 	0
scalar IntersectionExampleScenario.node[68].nic.mac1609_4 	ReceivedUnicastPackets 	0
scalar IntersectionExampleScenario.node[68].nic.mac1609_4 	ReceivedBroadcasts 	0
scalar IntersectionExampleScenario.node[68].nic.mac1609_4 	SentPackets 	0
scalar IntersectionExampleScenario.node[68].nic.mac1609_4 	SNIRLostPackets 	0
scalar IntersectionExampleScenario.node[68].nic.mac1609_4 	RXTXLostPackets 	0
scalar IntersectionExampleScenario.node[68].nic.mac1609_4 	TotalLostPackets 	0
scalar IntersectionExampleScenario.node[68].nic.mac1609_4 	DroppedPacketsInMac 	0
scalar IntersectionExampleScenario.node[68].nic.mac1609_4 	TooLittleTime 	0
scalar IntersectionExampleScenario.node[68].nic.mac1609_4 	TimesIntoBackoff 	0
scalar IntersectionExampleScenario.node[68].nic.mac1609_4 	SlotsBackoff 	0
scalar IntersectionExampleScenario.node[68].nic.mac1609_4 	NumInternalContention 	0
scalar IntersectionExampleScenario.node[68].nic.mac1609_4 	totalBusyTime 	0
scalar IntersectionExampleScenario.node[68].veinsmobility 	startTime 	146.75
scalar IntersectionExampleScenario.node[68].veinsmobility 	totalTime 	53
scalar IntersectionExampleScenario.node[68].veinsmobility 	stopTime 	200
scalar IntersectionExampleScenario.node[68].veinsmobility 	minSpeed 	-0.71360778808594
scalar IntersectionExampleScenario.node[68].veinsmobility 	maxSpeed 	16.5
scalar IntersectionExampleScenario.node[68].veinsmobility 	totalDistance 	566.66665123482
scalar IntersectionExampleScenario.node[68].veinsmobility 	totalCO2Emission 	152.76362761919
scalar IntersectionExampleScenario.node[69].appl 	VehicleRemoved 	0
scalar IntersectionExampleScenario.node[69].appl 	ArrivedAtDest 	1
scalar IntersectionExampleScenario.node[69].appl 	IntersectionEnterTime 	149
scalar IntersectionExampleScenario.node[69].appl 	IntersectionExitTime 	184.27677593596
scalar IntersectionExampleScenario.node[69].appl 	NumberOfCollisions 	0
scalar IntersectionExampleScenario.node[69].nic.phy80211p 	busyTime 	0
scalar IntersectionExampleScenario.node[69].nic.mac1609_4 	ReceivedUnicastPackets 	0
scalar IntersectionExampleScenario.node[69].nic.mac1609_4 	ReceivedBroadcasts 	0
scalar IntersectionExampleScenario.node[69].nic.mac1609_4 	SentPackets 	0
scalar IntersectionExampleScenario.node[69].nic.mac1609_4 	SNIRLostPackets 	0
scalar IntersectionExampleScenario.node[69].nic.mac1609_4 	RXTXLostPackets 	0
scalar IntersectionExampleScenario.node[69].nic.mac1609_4 	TotalLostPackets 	0
scalar IntersectionExampleScenario.node[69].nic.mac1609_4 	DroppedPacketsInMac 	0
scalar IntersectionExampleScenario.node[69].nic.mac1609_4 	TooLittleTime 	0
scalar IntersectionExampleScenario.node[69].nic.mac1609_4 	TimesIntoBackoff 	0
scalar IntersectionExampleScenario.node[69].nic.mac1609_4 	SlotsBackoff 	0
scalar IntersectionExampleScenario.node[69].nic.mac1609_4 	NumInternalContention 	0
scalar IntersectionExampleScenario.node[69].nic.mac1609_4 	totalBusyTime 	0
scalar IntersectionExampleScenario.node[69].veinsmobility 	startTime 	149
scalar IntersectionExampleScenario.node[69].veinsmobility 	totalTime 	51.5
scalar IntersectionExampleScenario.node[69].veinsmobility 	stopTime 	200.75
scalar IntersectionExampleScenario.node[69].veinsmobility 	minSpeed 	0
scalar IntersectionExampleScenario.node[69].veinsmobility 	maxSpeed 	15.64999961853
scalar IntersectionExampleScenario.node[69].veinsmobility 	totalDistance 	555.00346374512
scalar IntersectionExampleScenario.node[69].veinsmobility 	totalCO2Emission 	141.59326129671
scalar IntersectionExampleScenario.node[70].appl 	VehicleRemoved 	0
scalar IntersectionExampleScenario.node[70].appl 	ArrivedAtDest 	1
scalar IntersectionExampleScenario.node[70].appl 	IntersectionEnterTime 	151.25
scalar IntersectionExampleScenario.node[70].appl 	IntersectionExitTime 	186.56582590443
scalar IntersectionExampleScenario.node[70].appl 	NumberOfCollisions 	0
scalar IntersectionExampleScenario.node[70].nic.phy80211p 	busyTime 	0
scalar IntersectionExampleScenario.node[70].nic.mac1609_4 	ReceivedUnicastPackets 	0
scalar IntersectionExampleScenario.node[70].nic.mac1609_4 	ReceivedBroadcasts 	0
scalar IntersectionExampleScenario.node[70].nic.mac1609_4 	SentPackets 	0
scalar IntersectionExampleScenario.node[70].nic.mac1609_4 	SNIRLostPackets 	0
scalar IntersectionExampleScenario.node[70].nic.mac1609_4 	RXTXLostPackets 	0
scalar IntersectionExampleScenario.node[70].nic.mac1609_4 	TotalLostPackets 	0
scalar IntersectionExampleScenario.node[70].nic.mac1609_4 	DroppedPacketsInMac 	0
scalar IntersectionExampleScenario.node[70].nic.mac1609_4 	TooLittleTime 	0
scalar IntersectionExampleScenario.node[70].nic.mac1609_4 	TimesIntoBackoff 	0
scalar IntersectionExampleScenario.node[70].nic.mac1609_4 	SlotsBackoff 	0
scalar IntersectionExampleScenario.node[70].nic.mac1609_4 	NumInternalContention 	0
scalar IntersectionExampleScenario.node[70].nic.mac1609_4 	totalBusyTime 	0
scalar IntersectionExampleScenario.node[70].veinsmobility 	startTime 	151.25
scalar IntersectionExampleScenario.node[70].veinsmobility 	totalTime 	51.5
scalar IntersectionExampleScenario.node[70].veinsmobility 	stopTime 	203
scalar IntersectionExampleScenario.node[70].veinsmobility 	minSpeed 	1.5448800325394
scalar IntersectionExampleScenario.node[70].veinsmobility 	maxSpeed 	15.930837631226
scalar IntersectionExampleScenario.node[70].veinsmobility 	totalDistance 	562.27628291648
scalar IntersectionExampleScenario.node[70].veinsmobility 	totalCO2Emission 	149.94673130521
scalar IntersectionExampleScenario.node[72].appl 	VehicleRemoved 	0
scalar IntersectionExampleScenario.node[72].appl 	ArrivedAtDest 	1
scalar IntersectionExampleScenario.node[72].appl 	IntersectionEnterTime 	153.25
scalar IntersectionExampleScenario.node[72].appl 	IntersectionExitTime 	186.53253019217
scalar IntersectionExampleScenario.node[72].appl 	NumberOfCollisions 	0
scalar IntersectionExampleScenario.node[72].nic.phy80211p 	busyTime 	0
scalar IntersectionExampleScenario.node[72].nic.mac1609_4 	ReceivedUnicastPackets 	0
scalar IntersectionExampleScenario.node[72].nic.mac1609_4 	ReceivedBroadcasts 	0
scalar IntersectionExampleScenario.node[72].nic.mac1609_4 	SentPackets 	0
scalar IntersectionExampleScenario.node[72].nic.mac1609_4 	SNIRLostPackets 	0
scalar IntersectionExampleScenario.node[72].nic.mac1609_4 	RXTXLostPackets 	0
scalar IntersectionExampleScenario.node[72].nic.mac1609_4 	TotalLostPackets 	0
scalar IntersectionExampleScenario.node[72].nic.mac1609_4 	DroppedPacketsInMac 	0
scalar IntersectionExampleScenario.node[72].nic.mac1609_4 	TooLittleTime 	0
scalar IntersectionExampleScenario.node[72].nic.mac1609_4 	TimesIntoBackoff 	0
scalar IntersectionExampleScenario.node[72].nic.mac1609_4 	SlotsBackoff 	0
scalar IntersectionExampleScenario.node[72].nic.mac1609_4 	NumInternalContention 	0
scalar IntersectionExampleScenario.node[72].nic.mac1609_4 	totalBusyTime 	0
scalar IntersectionExampleScenario.node[72].veinsmobility 	startTime 	153.25
scalar IntersectionExampleScenario.node[72].veinsmobility 	totalTime 	50.5
scalar IntersectionExampleScenario.node[72].veinsmobility 	stopTime 	204
scalar IntersectionExampleScenario.node[72].veinsmobility 	minSpeed 	1.9415844678879
scalar IntersectionExampleScenario.node[72].veinsmobility 	maxSpeed 	15.02499961853
scalar IntersectionExampleScenario.node[72].veinsmobility 	totalDistance 	543.85806785124
scalar IntersectionExampleScenario.node[72].veinsmobility 	totalCO2Emission 	133.84081744692
scalar IntersectionExampleScenario.node[75].appl 	VehicleRemoved 	0
scalar IntersectionExampleScenario.node[75].appl 	ArrivedAtDest 	1
scalar IntersectionExampleScenario.node[75].appl 	IntersectionEnterTime 	169.25
scalar IntersectionExampleScenario.node[75].appl 	IntersectionExitTime 	192.03668434871
scalar IntersectionExampleScenario.node[75].appl 	NumberOfCollisions 	0
scalar IntersectionExampleScenario.node[75].nic.phy80211p 	busyTime 	0
scalar IntersectionExampleScenario.node[75].nic.mac1609_4 	ReceivedUnicastPackets 	0
scalar IntersectionExampleScenario.node[75].nic.mac1609_4 	ReceivedBroadcasts 	0
scalar IntersectionExampleScenario.node[75].nic.mac1609_4 	SentPackets 	0
scalar IntersectionExampleScenario.node[75].nic.mac1609_4 	SNIRLostPackets 	0
scalar IntersectionExampleScenario.node[75].nic.mac1609_4 	RXTXLostPackets 	0
scalar IntersectionExampleScenario.node[75].nic.mac1609_4 	TotalLostPackets 	0
scalar IntersectionExampleScenario.node[75].nic.mac1609_4 	DroppedPacketsInMac 	0
scalar IntersectionExampleScenario.node[75].nic.mac1609_4 	TooLittleTime 	0
scalar IntersectionExampleScenario.node[75].nic.mac1609_4 	TimesIntoBackoff 	0
scalar IntersectionExampleScenario.node[75].nic.mac1609_4 	SlotsBackoff 	0
scalar IntersectionExampleScenario.node[75].nic.mac1609_4 	NumInternalContention 	0
scalar IntersectionExampleScenario.node[75].nic.mac1609_4 	totalBusyTime 	0
scalar IntersectionExampleScenario.node[75].veinsmobility 	startTime 	169.25
scalar IntersectionExampleScenario.node[75].veinsmobility 	totalTime 	38.75
scalar IntersectionExampleScenario.node[75].veinsmobility 	stopTime 	208.25
scalar IntersectionExampleScenario.node[75].veinsmobility 	minSpeed 	5.6500000953674
scalar IntersectionExampleScenario.node[75].veinsmobility 	maxSpeed 	16.27499961853
scalar IntersectionExampleScenario.node[75].veinsmobility 	totalDistance 	549.31815923308
scalar IntersectionExampleScenario.node[75].veinsmobility 	totalCO2Emission 	127.35626566427
scalar IntersectionExampleScenario.node[76].appl 	VehicleRemoved 	0
scalar IntersectionExampleScenario.node[76].appl 	ArrivedAtDest 	1
scalar IntersectionExampleScenario.node[76].appl 	IntersectionEnterTime 	170.5
scalar IntersectionExampleScenario.node[76].appl 	IntersectionExitTime 	193.02592854659
scalar IntersectionExampleScenario.node[76].appl 	NumberOfCollisions 	0
scalar IntersectionExampleScenario.node[76].nic.phy80211p 	busyTime 	0
scalar IntersectionExampleScenario.node[76].nic.mac1609_4 	ReceivedUnicastPackets 	0
scalar IntersectionExampleScenario.node[76].nic.mac1609_4 	ReceivedBroadcasts 	0
scalar IntersectionExampleScenario.node[76].nic.mac1609_4 	SentPackets 	0
scalar IntersectionExampleScenario.node[76].nic.mac1609_4 	SNIRLostPackets 	0
scalar IntersectionExampleScenario.node[76].nic.mac1609_4 	RXTXLostPackets 	0
scalar IntersectionExampleScenario.node[76].nic.mac1609_4 	TotalLostPackets 	0
scalar IntersectionExampleScenario.node[76].nic.mac1609_4 	DroppedPacketsInMac 	0
scalar IntersectionExampleScenario.node[76].nic.mac1609_4 	TooLittleTime 	0
scalar IntersectionExampleScenario.node[76].nic.mac1609_4 	TimesIntoBackoff 	0
scalar IntersectionExampleScenario.node[76].nic.mac1609_4 	SlotsBackoff 	0
scalar IntersectionExampleScenario.node[76].nic.mac1609_4 	NumInternalContention 	0
scalar IntersectionExampleScenario.node[76].nic.mac1609_4 	totalBusyTime 	0
scalar IntersectionExampleScenario.node[76].veinsmobility 	startTime 	170.5
scalar IntersectionExampleScenario.node[76].veinsmobility 	totalTime 	38
scalar IntersectionExampleScenario.node[76].veinsmobility 	stopTime 	208.75
scalar IntersectionExampleScenario.node[76].veinsmobility 	minSpeed 	5.6500000953674
scalar IntersectionExampleScenario.node[76].veinsmobility 	maxSpeed 	16.125
scalar IntersectionExampleScenario.node[76].veinsmobility 	totalDistance 	550.71530914307
scalar IntersectionExampleScenario.node[76].veinsmobility 	totalCO2Emission 	119.61174556419
scalar IntersectionExampleScenario.node[71].appl 	VehicleRemoved 	0
scalar IntersectionExampleScenario.node[71].appl 	ArrivedAtDest 	1
scalar IntersectionExampleScenario.node[71].appl 	IntersectionEnterTime 	152.25
scalar IntersectionExampleScenario.node[71].appl 	IntersectionExitTime 	196.32046324344
scalar IntersectionExampleScenario.node[71].appl 	NumberOfCollisions 	0
scalar IntersectionExampleScenario.node[71].nic.phy80211p 	busyTime 	0
scalar IntersectionExampleScenario.node[71].nic.mac1609_4 	ReceivedUnicastPackets 	0
scalar IntersectionExampleScenario.node[71].nic.mac1609_4 	ReceivedBroadcasts 	0
scalar IntersectionExampleScenario.node[71].nic.mac1609_4 	SentPackets 	0
scalar IntersectionExampleScenario.node[71].nic.mac1609_4 	SNIRLostPackets 	0
scalar IntersectionExampleScenario.node[71].nic.mac1609_4 	RXTXLostPackets 	0
scalar IntersectionExampleScenario.node[71].nic.mac1609_4 	TotalLostPackets 	0
scalar IntersectionExampleScenario.node[71].nic.mac1609_4 	DroppedPacketsInMac 	0
scalar IntersectionExampleScenario.node[71].nic.mac1609_4 	TooLittleTime 	0
scalar IntersectionExampleScenario.node[71].nic.mac1609_4 	TimesIntoBackoff 	0
scalar IntersectionExampleScenario.node[71].nic.mac1609_4 	SlotsBackoff 	0
scalar IntersectionExampleScenario.node[71].nic.mac1609_4 	NumInternalContention 	0
scalar IntersectionExampleScenario.node[71].nic.mac1609_4 	totalBusyTime 	0
scalar IntersectionExampleScenario.node[71].veinsmobility 	startTime 	152.25
scalar IntersectionExampleScenario.node[71].veinsmobility 	totalTime 	60.75
scalar IntersectionExampleScenario.node[71].veinsmobility 	stopTime 	213.25
scalar IntersectionExampleScenario.node[71].veinsmobility 	minSpeed 	0
scalar IntersectionExampleScenario.node[71].veinsmobility 	maxSpeed 	15.02499961853
scalar IntersectionExampleScenario.node[71].veinsmobility 	totalDistance 	554.21067810059
scalar IntersectionExampleScenario.node[71].veinsmobility 	totalCO2Emission 	148.93173946016
scalar IntersectionExampleScenario.node[74].appl 	VehicleRemoved 	0
scalar IntersectionExampleScenario.node[74].appl 	ArrivedAtDest 	1
scalar IntersectionExampleScenario.node[74].appl 	IntersectionEnterTime 	169
scalar IntersectionExampleScenario.node[74].appl 	IntersectionExitTime 	198.26517252126
scalar IntersectionExampleScenario.node[74].appl 	NumberOfCollisions 	0
scalar IntersectionExampleScenario.node[74].nic.phy80211p 	busyTime 	0
scalar IntersectionExampleScenario.node[74].nic.mac1609_4 	ReceivedUnicastPackets 	0
scalar IntersectionExampleScenario.node[74].nic.mac1609_4 	ReceivedBroadcasts 	0
scalar IntersectionExampleScenario.node[74].nic.mac1609_4 	SentPackets 	0
scalar IntersectionExampleScenario.node[74].nic.mac1609_4 	SNIRLostPackets 	0
scalar IntersectionExampleScenario.node[74].nic.mac1609_4 	RXTXLostPackets 	0
scalar IntersectionExampleScenario.node[74].nic.mac1609_4 	TotalLostPackets 	0
scalar IntersectionExampleScenario.node[74].nic.mac1609_4 	DroppedPacketsInMac 	0
scalar IntersectionExampleScenario.node[74].nic.mac1609_4 	TooLittleTime 	0
scalar IntersectionExampleScenario.node[74].nic.mac1609_4 	TimesIntoBackoff 	0
scalar IntersectionExampleScenario.node[74].nic.mac1609_4 	SlotsBackoff 	0
scalar IntersectionExampleScenario.node[74].nic.mac1609_4 	NumInternalContention 	0
scalar IntersectionExampleScenario.node[74].nic.mac1609_4 	totalBusyTime 	0
scalar IntersectionExampleScenario.node[74].veinsmobility 	startTime 	169
scalar IntersectionExampleScenario.node[74].veinsmobility 	totalTime 	45.25
scalar IntersectionExampleScenario.node[74].veinsmobility 	stopTime 	214.5
scalar IntersectionExampleScenario.node[74].veinsmobility 	minSpeed 	3.4124927520752
scalar IntersectionExampleScenario.node[74].veinsmobility 	maxSpeed 	15.64999961853
scalar IntersectionExampleScenario.node[74].veinsmobility 	totalDistance 	552.701171875
scalar IntersectionExampleScenario.node[74].veinsmobility 	totalCO2Emission 	134.34201891864
scalar IntersectionExampleScenario.node[78].appl 	VehicleRemoved 	0
scalar IntersectionExampleScenario.node[78].appl 	ArrivedAtDest 	1
scalar IntersectionExampleScenario.node[78].appl 	IntersectionEnterTime 	173.5
scalar IntersectionExampleScenario.node[78].appl 	IntersectionExitTime 	200.82991005902
scalar IntersectionExampleScenario.node[78].appl 	NumberOfCollisions 	0
scalar IntersectionExampleScenario.node[78].nic.phy80211p 	busyTime 	0
scalar IntersectionExampleScenario.node[78].nic.mac1609_4 	ReceivedUnicastPackets 	0
scalar IntersectionExampleScenario.node[78].nic.mac1609_4 	ReceivedBroadcasts 	0
scalar IntersectionExampleScenario.node[78].nic.mac1609_4 	SentPackets 	0
scalar IntersectionExampleScenario.node[78].nic.mac1609_4 	SNIRLostPackets 	0
scalar IntersectionExampleScenario.node[78].nic.mac1609_4 	RXTXLostPackets 	0
scalar IntersectionExampleScenario.node[78].nic.mac1609_4 	TotalLostPackets 	0
scalar IntersectionExampleScenario.node[78].nic.mac1609_4 	DroppedPacketsInMac 	0
scalar IntersectionExampleScenario.node[78].nic.mac1609_4 	TooLittleTime 	0
scalar IntersectionExampleScenario.node[78].nic.mac1609_4 	TimesIntoBackoff 	0
scalar IntersectionExampleScenario.node[78].nic.mac1609_4 	SlotsBackoff 	0
scalar IntersectionExampleScenario.node[78].nic.mac1609_4 	NumInternalContention 	0
scalar IntersectionExampleScenario.node[78].nic.mac1609_4 	totalBusyTime 	0
scalar IntersectionExampleScenario.node[78].veinsmobility 	startTime 	173.5
scalar IntersectionExampleScenario.node[78].veinsmobility 	totalTime 	43.5
scalar IntersectionExampleScenario.node[78].veinsmobility 	stopTime 	217.25
scalar IntersectionExampleScenario.node[78].veinsmobility 	minSpeed 	5.6308994293213
scalar IntersectionExampleScenario.node[78].veinsmobility 	maxSpeed 	15.412838935852
scalar IntersectionExampleScenario.node[78].veinsmobility 	totalDistance 	552.38096618652
scalar IntersectionExampleScenario.node[78].veinsmobility 	totalCO2Emission 	126.8633408925
