version 2
run nodebug-14-20200606-12:44:43-21956
attr configname nodebug
attr datetime 20200606-12:44:43
attr experiment nodebug
attr inifile omnetpp.ini
attr iterationvars ""
attr iterationvars2 $repetition=14
attr measurement ""
attr network "\"org.car2x.veins.modules.application.ExtTraCIScenarioManagerLaunchd.IntersectionExampleScenario\""
attr processid 21956
attr repetition 14
attr replication #14
attr resultdir results
attr runnumber 14
attr seedset 14
param **.coreDebug false
param **.debug false
param *.**.nic.mac1609_4.bitrate 18Mbps
param *.**.nic.mac1609_4.txPower 20mW
param *.**.nic.mac1609_4.useServiceChannel false
param *.**.nic.phy80211p.analogueModels "xmldoc(\"config.xml\")"
param *.**.nic.phy80211p.decider "xmldoc(\"config.xml\")"
param *.**.nic.phy80211p.sensitivity -89dBm
param *.**.nic.phy80211p.thermalNoise -110dBm
param *.**.nic.phy80211p.usePropagationDelay true
param *.**.nic.phy80211p.useThermalNoise true
param *.annotations.draw false
param *.connectionManager.alpha 2.0
param *.connectionManager.carrierFrequency "5.890e9 Hz"
param *.connectionManager.pMax 20mW
param *.connectionManager.sat -89dBm
param *.connectionManager.sendDirect true
param *.manager.autoShutdown true
param *.manager.host "\"localhost\""
param *.manager.launchConfig "xmldoc(\"paramics.launchd.xml\")"
param *.manager.margin 25
param *.manager.moduleDisplayString "\"\""
param *.manager.moduleName "\"node\""
param *.manager.moduleType "\"org.car2x.veins.nodes.Car\""
param *.manager.port 9999
param *.manager.updateInterval 250ms
param *.node[*0].veinsmobility.accidentCount 0
param *.node[*0].veinsmobility.accidentDuration 30s
param *.node[*0].veinsmobility.accidentStart 75s
param *.node[*].appl.LiderSelectZoneRadio 55.0
param *.node[*].appl.ShareDataZoneRadio 110.0
param *.node[*].appl.TiempoSemaforo 30.0
param *.node[*].appl.beaconInterval 1s
param *.node[*].appl.beaconPriority 3
param *.node[*].appl.dataOnSch false
param *.node[*].appl.dataPriority 2
param *.node[*].appl.debug false
param *.node[*].appl.headerLength "256 bit"
param *.node[*].appl.maxOffset 0.005s
param *.node[*].appl.sendBeacons false
param *.node[*].appl.sendData true
param *.node[*].applType "\"Dummy\""
param *.node[*].mobilityType "\"TraCIMobility\""
param *.node[*].mobilityType.debug true
param *.node[*].veinsmobility.x 0
param *.node[*].veinsmobility.y 0
param *.node[*].veinsmobility.z 1.895
param *.node[*].veinsmobilityType "\"org.car2x.veins.modules.mobility.traci.TraCIMobility\""
param *.node[*].veinsmobilityType.debug true
param *.playgroundSizeX 8500m
param *.playgroundSizeY 8500m
param *.playgroundSizeZ 50m
param *.world.use2D false
param *.world.useTorus false

scalar IntersectionExampleScenario.node[0].appl 	VehicleRemoved 	0
scalar IntersectionExampleScenario.node[0].appl 	ArrivedAtDest 	1
scalar IntersectionExampleScenario.node[0].appl 	IntersectionEnterTime 	0.25
scalar IntersectionExampleScenario.node[0].appl 	IntersectionExitTime 	23.501005868602
scalar IntersectionExampleScenario.node[0].appl 	NumberOfCollisions 	0
scalar IntersectionExampleScenario.node[0].nic.phy80211p 	busyTime 	0
scalar IntersectionExampleScenario.node[0].nic.mac1609_4 	ReceivedUnicastPackets 	0
scalar IntersectionExampleScenario.node[0].nic.mac1609_4 	ReceivedBroadcasts 	0
scalar IntersectionExampleScenario.node[0].nic.mac1609_4 	SentPackets 	0
scalar IntersectionExampleScenario.node[0].nic.mac1609_4 	SNIRLostPackets 	0
scalar IntersectionExampleScenario.node[0].nic.mac1609_4 	RXTXLostPackets 	0
scalar IntersectionExampleScenario.node[0].nic.mac1609_4 	TotalLostPackets 	0
scalar IntersectionExampleScenario.node[0].nic.mac1609_4 	DroppedPacketsInMac 	0
scalar IntersectionExampleScenario.node[0].nic.mac1609_4 	TooLittleTime 	0
scalar IntersectionExampleScenario.node[0].nic.mac1609_4 	TimesIntoBackoff 	0
scalar IntersectionExampleScenario.node[0].nic.mac1609_4 	SlotsBackoff 	0
scalar IntersectionExampleScenario.node[0].nic.mac1609_4 	NumInternalContention 	0
scalar IntersectionExampleScenario.node[0].nic.mac1609_4 	totalBusyTime 	0
scalar IntersectionExampleScenario.node[0].veinsmobility 	startTime 	0.25
scalar IntersectionExampleScenario.node[0].veinsmobility 	totalTime 	39.25
scalar IntersectionExampleScenario.node[0].veinsmobility 	stopTime 	39.75
scalar IntersectionExampleScenario.node[0].veinsmobility 	minSpeed 	5.6500000953674
scalar IntersectionExampleScenario.node[0].veinsmobility 	maxSpeed 	16.5
scalar IntersectionExampleScenario.node[0].veinsmobility 	totalDistance 	543.3900264067
scalar IntersectionExampleScenario.node[0].veinsmobility 	totalCO2Emission 	131.52159740226
scalar IntersectionExampleScenario.node[1].appl 	VehicleRemoved 	0
scalar IntersectionExampleScenario.node[1].appl 	ArrivedAtDest 	1
scalar IntersectionExampleScenario.node[1].appl 	IntersectionEnterTime 	2
scalar IntersectionExampleScenario.node[1].appl 	IntersectionExitTime 	26.539785553527
scalar IntersectionExampleScenario.node[1].appl 	NumberOfCollisions 	0
scalar IntersectionExampleScenario.node[1].nic.phy80211p 	busyTime 	0
scalar IntersectionExampleScenario.node[1].nic.mac1609_4 	ReceivedUnicastPackets 	0
scalar IntersectionExampleScenario.node[1].nic.mac1609_4 	ReceivedBroadcasts 	0
scalar IntersectionExampleScenario.node[1].nic.mac1609_4 	SentPackets 	0
scalar IntersectionExampleScenario.node[1].nic.mac1609_4 	SNIRLostPackets 	0
scalar IntersectionExampleScenario.node[1].nic.mac1609_4 	RXTXLostPackets 	0
scalar IntersectionExampleScenario.node[1].nic.mac1609_4 	TotalLostPackets 	0
scalar IntersectionExampleScenario.node[1].nic.mac1609_4 	DroppedPacketsInMac 	0
scalar IntersectionExampleScenario.node[1].nic.mac1609_4 	TooLittleTime 	0
scalar IntersectionExampleScenario.node[1].nic.mac1609_4 	TimesIntoBackoff 	0
scalar IntersectionExampleScenario.node[1].nic.mac1609_4 	SlotsBackoff 	0
scalar IntersectionExampleScenario.node[1].nic.mac1609_4 	NumInternalContention 	0
scalar IntersectionExampleScenario.node[1].nic.mac1609_4 	totalBusyTime 	0
scalar IntersectionExampleScenario.node[1].veinsmobility 	startTime 	2
scalar IntersectionExampleScenario.node[1].veinsmobility 	totalTime 	41
scalar IntersectionExampleScenario.node[1].veinsmobility 	stopTime 	43.25
scalar IntersectionExampleScenario.node[1].veinsmobility 	minSpeed 	5.6500000953674
scalar IntersectionExampleScenario.node[1].veinsmobility 	maxSpeed 	15.875
scalar IntersectionExampleScenario.node[1].veinsmobility 	totalDistance 	565.07280737985
scalar IntersectionExampleScenario.node[1].veinsmobility 	totalCO2Emission 	129.7372806811
scalar IntersectionExampleScenario.node[4].appl 	VehicleRemoved 	0
scalar IntersectionExampleScenario.node[4].appl 	ArrivedAtDest 	1
scalar IntersectionExampleScenario.node[4].appl 	IntersectionEnterTime 	6.75
scalar IntersectionExampleScenario.node[4].appl 	IntersectionExitTime 	29.5953923747
scalar IntersectionExampleScenario.node[4].appl 	NumberOfCollisions 	0
scalar IntersectionExampleScenario.node[4].nic.phy80211p 	busyTime 	0
scalar IntersectionExampleScenario.node[4].nic.mac1609_4 	ReceivedUnicastPackets 	0
scalar IntersectionExampleScenario.node[4].nic.mac1609_4 	ReceivedBroadcasts 	0
scalar IntersectionExampleScenario.node[4].nic.mac1609_4 	SentPackets 	0
scalar IntersectionExampleScenario.node[4].nic.mac1609_4 	SNIRLostPackets 	0
scalar IntersectionExampleScenario.node[4].nic.mac1609_4 	RXTXLostPackets 	0
scalar IntersectionExampleScenario.node[4].nic.mac1609_4 	TotalLostPackets 	0
scalar IntersectionExampleScenario.node[4].nic.mac1609_4 	DroppedPacketsInMac 	0
scalar IntersectionExampleScenario.node[4].nic.mac1609_4 	TooLittleTime 	0
scalar IntersectionExampleScenario.node[4].nic.mac1609_4 	TimesIntoBackoff 	0
scalar IntersectionExampleScenario.node[4].nic.mac1609_4 	SlotsBackoff 	0
scalar IntersectionExampleScenario.node[4].nic.mac1609_4 	NumInternalContention 	0
scalar IntersectionExampleScenario.node[4].nic.mac1609_4 	totalBusyTime 	0
scalar IntersectionExampleScenario.node[4].veinsmobility 	startTime 	6.75
scalar IntersectionExampleScenario.node[4].veinsmobility 	totalTime 	39
scalar IntersectionExampleScenario.node[4].veinsmobility 	stopTime 	46
scalar IntersectionExampleScenario.node[4].veinsmobility 	minSpeed 	5.6500000953674
scalar IntersectionExampleScenario.node[4].veinsmobility 	maxSpeed 	15.64999961853
scalar IntersectionExampleScenario.node[4].veinsmobility 	totalDistance 	540.87113282978
scalar IntersectionExampleScenario.node[4].veinsmobility 	totalCO2Emission 	128.44547979834
scalar IntersectionExampleScenario.node[5].appl 	VehicleRemoved 	0
scalar IntersectionExampleScenario.node[5].appl 	ArrivedAtDest 	1
scalar IntersectionExampleScenario.node[5].appl 	IntersectionEnterTime 	7
scalar IntersectionExampleScenario.node[5].appl 	IntersectionExitTime 	30.059363220789
scalar IntersectionExampleScenario.node[5].appl 	NumberOfCollisions 	0
scalar IntersectionExampleScenario.node[5].nic.phy80211p 	busyTime 	0
scalar IntersectionExampleScenario.node[5].nic.mac1609_4 	ReceivedUnicastPackets 	0
scalar IntersectionExampleScenario.node[5].nic.mac1609_4 	ReceivedBroadcasts 	0
scalar IntersectionExampleScenario.node[5].nic.mac1609_4 	SentPackets 	0
scalar IntersectionExampleScenario.node[5].nic.mac1609_4 	SNIRLostPackets 	0
scalar IntersectionExampleScenario.node[5].nic.mac1609_4 	RXTXLostPackets 	0
scalar IntersectionExampleScenario.node[5].nic.mac1609_4 	TotalLostPackets 	0
scalar IntersectionExampleScenario.node[5].nic.mac1609_4 	DroppedPacketsInMac 	0
scalar IntersectionExampleScenario.node[5].nic.mac1609_4 	TooLittleTime 	0
scalar IntersectionExampleScenario.node[5].nic.mac1609_4 	TimesIntoBackoff 	0
scalar IntersectionExampleScenario.node[5].nic.mac1609_4 	SlotsBackoff 	0
scalar IntersectionExampleScenario.node[5].nic.mac1609_4 	NumInternalContention 	0
scalar IntersectionExampleScenario.node[5].nic.mac1609_4 	totalBusyTime 	0
scalar IntersectionExampleScenario.node[5].veinsmobility 	startTime 	7
scalar IntersectionExampleScenario.node[5].veinsmobility 	totalTime 	39
scalar IntersectionExampleScenario.node[5].veinsmobility 	stopTime 	46.25
scalar IntersectionExampleScenario.node[5].veinsmobility 	minSpeed 	5.6500000953674
scalar IntersectionExampleScenario.node[5].veinsmobility 	maxSpeed 	16
scalar IntersectionExampleScenario.node[5].veinsmobility 	totalDistance 	551.26982309375
scalar IntersectionExampleScenario.node[5].veinsmobility 	totalCO2Emission 	126.14488488261
scalar IntersectionExampleScenario.node[3].appl 	VehicleRemoved 	0
scalar IntersectionExampleScenario.node[3].appl 	ArrivedAtDest 	1
scalar IntersectionExampleScenario.node[3].appl 	IntersectionEnterTime 	5
scalar IntersectionExampleScenario.node[3].appl 	IntersectionExitTime 	32.526253033197
scalar IntersectionExampleScenario.node[3].appl 	NumberOfCollisions 	0
scalar IntersectionExampleScenario.node[3].nic.phy80211p 	busyTime 	0
scalar IntersectionExampleScenario.node[3].nic.mac1609_4 	ReceivedUnicastPackets 	0
scalar IntersectionExampleScenario.node[3].nic.mac1609_4 	ReceivedBroadcasts 	0
scalar IntersectionExampleScenario.node[3].nic.mac1609_4 	SentPackets 	0
scalar IntersectionExampleScenario.node[3].nic.mac1609_4 	SNIRLostPackets 	0
scalar IntersectionExampleScenario.node[3].nic.mac1609_4 	RXTXLostPackets 	0
scalar IntersectionExampleScenario.node[3].nic.mac1609_4 	TotalLostPackets 	0
scalar IntersectionExampleScenario.node[3].nic.mac1609_4 	DroppedPacketsInMac 	0
scalar IntersectionExampleScenario.node[3].nic.mac1609_4 	TooLittleTime 	0
scalar IntersectionExampleScenario.node[3].nic.mac1609_4 	TimesIntoBackoff 	0
scalar IntersectionExampleScenario.node[3].nic.mac1609_4 	SlotsBackoff 	0
scalar IntersectionExampleScenario.node[3].nic.mac1609_4 	NumInternalContention 	0
scalar IntersectionExampleScenario.node[3].nic.mac1609_4 	totalBusyTime 	0
scalar IntersectionExampleScenario.node[3].veinsmobility 	startTime 	5
scalar IntersectionExampleScenario.node[3].veinsmobility 	totalTime 	44.5
scalar IntersectionExampleScenario.node[3].veinsmobility 	stopTime 	49.75
scalar IntersectionExampleScenario.node[3].veinsmobility 	minSpeed 	5.6500000953674
scalar IntersectionExampleScenario.node[3].veinsmobility 	maxSpeed 	15.367917060852
scalar IntersectionExampleScenario.node[3].veinsmobility 	totalDistance 	566.18202690315
scalar IntersectionExampleScenario.node[3].veinsmobility 	totalCO2Emission 	137.90693496682
scalar IntersectionExampleScenario.node[2].appl 	VehicleRemoved 	0
scalar IntersectionExampleScenario.node[2].appl 	ArrivedAtDest 	1
scalar IntersectionExampleScenario.node[2].appl 	IntersectionEnterTime 	4.5
scalar IntersectionExampleScenario.node[2].appl 	IntersectionExitTime 	36.29278182835
scalar IntersectionExampleScenario.node[2].appl 	NumberOfCollisions 	0
scalar IntersectionExampleScenario.node[2].nic.phy80211p 	busyTime 	0
scalar IntersectionExampleScenario.node[2].nic.mac1609_4 	ReceivedUnicastPackets 	0
scalar IntersectionExampleScenario.node[2].nic.mac1609_4 	ReceivedBroadcasts 	0
scalar IntersectionExampleScenario.node[2].nic.mac1609_4 	SentPackets 	0
scalar IntersectionExampleScenario.node[2].nic.mac1609_4 	SNIRLostPackets 	0
scalar IntersectionExampleScenario.node[2].nic.mac1609_4 	RXTXLostPackets 	0
scalar IntersectionExampleScenario.node[2].nic.mac1609_4 	TotalLostPackets 	0
scalar IntersectionExampleScenario.node[2].nic.mac1609_4 	DroppedPacketsInMac 	0
scalar IntersectionExampleScenario.node[2].nic.mac1609_4 	TooLittleTime 	0
scalar IntersectionExampleScenario.node[2].nic.mac1609_4 	TimesIntoBackoff 	0
scalar IntersectionExampleScenario.node[2].nic.mac1609_4 	SlotsBackoff 	0
scalar IntersectionExampleScenario.node[2].nic.mac1609_4 	NumInternalContention 	0
scalar IntersectionExampleScenario.node[2].nic.mac1609_4 	totalBusyTime 	0
scalar IntersectionExampleScenario.node[2].veinsmobility 	startTime 	4.5
scalar IntersectionExampleScenario.node[2].veinsmobility 	totalTime 	48.25
scalar IntersectionExampleScenario.node[2].veinsmobility 	stopTime 	53
scalar IntersectionExampleScenario.node[2].veinsmobility 	minSpeed 	0
scalar IntersectionExampleScenario.node[2].veinsmobility 	maxSpeed 	15.02499961853
scalar IntersectionExampleScenario.node[2].veinsmobility 	totalDistance 	551.77279663086
scalar IntersectionExampleScenario.node[2].veinsmobility 	totalCO2Emission 	136.33339572691
scalar IntersectionExampleScenario.node[6].appl 	VehicleRemoved 	0
scalar IntersectionExampleScenario.node[6].appl 	ArrivedAtDest 	1
scalar IntersectionExampleScenario.node[6].appl 	IntersectionEnterTime 	9.75
scalar IntersectionExampleScenario.node[6].appl 	IntersectionExitTime 	37.332125007699
scalar IntersectionExampleScenario.node[6].appl 	NumberOfCollisions 	0
scalar IntersectionExampleScenario.node[6].nic.phy80211p 	busyTime 	0
scalar IntersectionExampleScenario.node[6].nic.mac1609_4 	ReceivedUnicastPackets 	0
scalar IntersectionExampleScenario.node[6].nic.mac1609_4 	ReceivedBroadcasts 	0
scalar IntersectionExampleScenario.node[6].nic.mac1609_4 	SentPackets 	0
scalar IntersectionExampleScenario.node[6].nic.mac1609_4 	SNIRLostPackets 	0
scalar IntersectionExampleScenario.node[6].nic.mac1609_4 	RXTXLostPackets 	0
scalar IntersectionExampleScenario.node[6].nic.mac1609_4 	TotalLostPackets 	0
scalar IntersectionExampleScenario.node[6].nic.mac1609_4 	DroppedPacketsInMac 	0
scalar IntersectionExampleScenario.node[6].nic.mac1609_4 	TooLittleTime 	0
scalar IntersectionExampleScenario.node[6].nic.mac1609_4 	TimesIntoBackoff 	0
scalar IntersectionExampleScenario.node[6].nic.mac1609_4 	SlotsBackoff 	0
scalar IntersectionExampleScenario.node[6].nic.mac1609_4 	NumInternalContention 	0
scalar IntersectionExampleScenario.node[6].nic.mac1609_4 	totalBusyTime 	0
scalar IntersectionExampleScenario.node[6].veinsmobility 	startTime 	9.75
scalar IntersectionExampleScenario.node[6].veinsmobility 	totalTime 	43.25
scalar IntersectionExampleScenario.node[6].veinsmobility 	stopTime 	53.25
scalar IntersectionExampleScenario.node[6].veinsmobility 	minSpeed 	1.6007528305054
scalar IntersectionExampleScenario.node[6].veinsmobility 	maxSpeed 	16.005475997925
scalar IntersectionExampleScenario.node[6].veinsmobility 	totalDistance 	550.91478724096
scalar IntersectionExampleScenario.node[6].veinsmobility 	totalCO2Emission 	139.29768382273
scalar IntersectionExampleScenario.node[10].appl 	VehicleRemoved 	0
scalar IntersectionExampleScenario.node[10].appl 	ArrivedAtDest 	1
scalar IntersectionExampleScenario.node[10].appl 	IntersectionEnterTime 	25.25
scalar IntersectionExampleScenario.node[10].appl 	IntersectionExitTime 	55.295313335431
scalar IntersectionExampleScenario.node[10].appl 	NumberOfCollisions 	0
scalar IntersectionExampleScenario.node[10].nic.phy80211p 	busyTime 	0
scalar IntersectionExampleScenario.node[10].nic.mac1609_4 	ReceivedUnicastPackets 	0
scalar IntersectionExampleScenario.node[10].nic.mac1609_4 	ReceivedBroadcasts 	0
scalar IntersectionExampleScenario.node[10].nic.mac1609_4 	SentPackets 	0
scalar IntersectionExampleScenario.node[10].nic.mac1609_4 	SNIRLostPackets 	0
scalar IntersectionExampleScenario.node[10].nic.mac1609_4 	RXTXLostPackets 	0
scalar IntersectionExampleScenario.node[10].nic.mac1609_4 	TotalLostPackets 	0
scalar IntersectionExampleScenario.node[10].nic.mac1609_4 	DroppedPacketsInMac 	0
scalar IntersectionExampleScenario.node[10].nic.mac1609_4 	TooLittleTime 	0
scalar IntersectionExampleScenario.node[10].nic.mac1609_4 	TimesIntoBackoff 	0
scalar IntersectionExampleScenario.node[10].nic.mac1609_4 	SlotsBackoff 	0
scalar IntersectionExampleScenario.node[10].nic.mac1609_4 	NumInternalContention 	0
scalar IntersectionExampleScenario.node[10].nic.mac1609_4 	totalBusyTime 	0
scalar IntersectionExampleScenario.node[10].veinsmobility 	startTime 	25.25
scalar IntersectionExampleScenario.node[10].veinsmobility 	totalTime 	45.75
scalar IntersectionExampleScenario.node[10].veinsmobility 	stopTime 	71.25
scalar IntersectionExampleScenario.node[10].veinsmobility 	minSpeed 	0
scalar IntersectionExampleScenario.node[10].veinsmobility 	maxSpeed 	16
scalar IntersectionExampleScenario.node[10].veinsmobility 	totalDistance 	554.25534057617
scalar IntersectionExampleScenario.node[10].veinsmobility 	totalCO2Emission 	141.44685248082
scalar IntersectionExampleScenario.node[7].appl 	VehicleRemoved 	0
scalar IntersectionExampleScenario.node[7].appl 	ArrivedAtDest 	1
scalar IntersectionExampleScenario.node[7].appl 	IntersectionEnterTime 	19.75
scalar IntersectionExampleScenario.node[7].appl 	IntersectionExitTime 	55.260418645543
scalar IntersectionExampleScenario.node[7].appl 	NumberOfCollisions 	0
scalar IntersectionExampleScenario.node[7].nic.phy80211p 	busyTime 	0
scalar IntersectionExampleScenario.node[7].nic.mac1609_4 	ReceivedUnicastPackets 	0
scalar IntersectionExampleScenario.node[7].nic.mac1609_4 	ReceivedBroadcasts 	0
scalar IntersectionExampleScenario.node[7].nic.mac1609_4 	SentPackets 	0
scalar IntersectionExampleScenario.node[7].nic.mac1609_4 	SNIRLostPackets 	0
scalar IntersectionExampleScenario.node[7].nic.mac1609_4 	RXTXLostPackets 	0
scalar IntersectionExampleScenario.node[7].nic.mac1609_4 	TotalLostPackets 	0
scalar IntersectionExampleScenario.node[7].nic.mac1609_4 	DroppedPacketsInMac 	0
scalar IntersectionExampleScenario.node[7].nic.mac1609_4 	TooLittleTime 	0
scalar IntersectionExampleScenario.node[7].nic.mac1609_4 	TimesIntoBackoff 	0
scalar IntersectionExampleScenario.node[7].nic.mac1609_4 	SlotsBackoff 	0
scalar IntersectionExampleScenario.node[7].nic.mac1609_4 	NumInternalContention 	0
scalar IntersectionExampleScenario.node[7].nic.mac1609_4 	totalBusyTime 	0
scalar IntersectionExampleScenario.node[7].veinsmobility 	startTime 	19.75
scalar IntersectionExampleScenario.node[7].veinsmobility 	totalTime 	51.5
scalar IntersectionExampleScenario.node[7].veinsmobility 	stopTime 	71.5
scalar IntersectionExampleScenario.node[7].veinsmobility 	minSpeed 	0
scalar IntersectionExampleScenario.node[7].veinsmobility 	maxSpeed 	15.64999961853
scalar IntersectionExampleScenario.node[7].veinsmobility 	totalDistance 	548.86372484317
scalar IntersectionExampleScenario.node[7].veinsmobility 	totalCO2Emission 	143.62568159916
scalar IntersectionExampleScenario.node[9].appl 	VehicleRemoved 	0
scalar IntersectionExampleScenario.node[9].appl 	ArrivedAtDest 	1
scalar IntersectionExampleScenario.node[9].appl 	IntersectionEnterTime 	24
scalar IntersectionExampleScenario.node[9].appl 	IntersectionExitTime 	56.023734817369
scalar IntersectionExampleScenario.node[9].appl 	NumberOfCollisions 	0
scalar IntersectionExampleScenario.node[9].nic.phy80211p 	busyTime 	0
scalar IntersectionExampleScenario.node[9].nic.mac1609_4 	ReceivedUnicastPackets 	0
scalar IntersectionExampleScenario.node[9].nic.mac1609_4 	ReceivedBroadcasts 	0
scalar IntersectionExampleScenario.node[9].nic.mac1609_4 	SentPackets 	0
scalar IntersectionExampleScenario.node[9].nic.mac1609_4 	SNIRLostPackets 	0
scalar IntersectionExampleScenario.node[9].nic.mac1609_4 	RXTXLostPackets 	0
scalar IntersectionExampleScenario.node[9].nic.mac1609_4 	TotalLostPackets 	0
scalar IntersectionExampleScenario.node[9].nic.mac1609_4 	DroppedPacketsInMac 	0
scalar IntersectionExampleScenario.node[9].nic.mac1609_4 	TooLittleTime 	0
scalar IntersectionExampleScenario.node[9].nic.mac1609_4 	TimesIntoBackoff 	0
scalar IntersectionExampleScenario.node[9].nic.mac1609_4 	SlotsBackoff 	0
scalar IntersectionExampleScenario.node[9].nic.mac1609_4 	NumInternalContention 	0
scalar IntersectionExampleScenario.node[9].nic.mac1609_4 	totalBusyTime 	0
scalar IntersectionExampleScenario.node[9].veinsmobility 	startTime 	24
scalar IntersectionExampleScenario.node[9].veinsmobility 	totalTime 	49
scalar IntersectionExampleScenario.node[9].veinsmobility 	stopTime 	73.25
scalar IntersectionExampleScenario.node[9].veinsmobility 	minSpeed 	0
scalar IntersectionExampleScenario.node[9].veinsmobility 	maxSpeed 	15.390127182007
scalar IntersectionExampleScenario.node[9].veinsmobility 	totalDistance 	528.00101495946
scalar IntersectionExampleScenario.node[9].veinsmobility 	totalCO2Emission 	137.51980212723
scalar IntersectionExampleScenario.node[12].appl 	VehicleRemoved 	0
scalar IntersectionExampleScenario.node[12].appl 	ArrivedAtDest 	1
scalar IntersectionExampleScenario.node[12].appl 	IntersectionEnterTime 	29.25
scalar IntersectionExampleScenario.node[12].appl 	IntersectionExitTime 	57.772970643709
scalar IntersectionExampleScenario.node[12].appl 	NumberOfCollisions 	0
scalar IntersectionExampleScenario.node[12].nic.phy80211p 	busyTime 	0
scalar IntersectionExampleScenario.node[12].nic.mac1609_4 	ReceivedUnicastPackets 	0
scalar IntersectionExampleScenario.node[12].nic.mac1609_4 	ReceivedBroadcasts 	0
scalar IntersectionExampleScenario.node[12].nic.mac1609_4 	SentPackets 	0
scalar IntersectionExampleScenario.node[12].nic.mac1609_4 	SNIRLostPackets 	0
scalar IntersectionExampleScenario.node[12].nic.mac1609_4 	RXTXLostPackets 	0
scalar IntersectionExampleScenario.node[12].nic.mac1609_4 	TotalLostPackets 	0
scalar IntersectionExampleScenario.node[12].nic.mac1609_4 	DroppedPacketsInMac 	0
scalar IntersectionExampleScenario.node[12].nic.mac1609_4 	TooLittleTime 	0
scalar IntersectionExampleScenario.node[12].nic.mac1609_4 	TimesIntoBackoff 	0
scalar IntersectionExampleScenario.node[12].nic.mac1609_4 	SlotsBackoff 	0
scalar IntersectionExampleScenario.node[12].nic.mac1609_4 	NumInternalContention 	0
scalar IntersectionExampleScenario.node[12].nic.mac1609_4 	totalBusyTime 	0
scalar IntersectionExampleScenario.node[12].veinsmobility 	startTime 	29.25
scalar IntersectionExampleScenario.node[12].veinsmobility 	totalTime 	44.5
scalar IntersectionExampleScenario.node[12].veinsmobility 	stopTime 	74
scalar IntersectionExampleScenario.node[12].veinsmobility 	minSpeed 	3.2167589664459
scalar IntersectionExampleScenario.node[12].veinsmobility 	maxSpeed 	15.64999961853
scalar IntersectionExampleScenario.node[12].veinsmobility 	totalDistance 	558.3426361084
scalar IntersectionExampleScenario.node[12].veinsmobility 	totalCO2Emission 	134.81846344099
scalar IntersectionExampleScenario.node[8].appl 	VehicleRemoved 	0
scalar IntersectionExampleScenario.node[8].appl 	ArrivedAtDest 	1
scalar IntersectionExampleScenario.node[8].appl 	IntersectionEnterTime 	23
scalar IntersectionExampleScenario.node[8].appl 	IntersectionExitTime 	58.842813919444
scalar IntersectionExampleScenario.node[8].appl 	NumberOfCollisions 	0
scalar IntersectionExampleScenario.node[8].nic.phy80211p 	busyTime 	0
scalar IntersectionExampleScenario.node[8].nic.mac1609_4 	ReceivedUnicastPackets 	0
scalar IntersectionExampleScenario.node[8].nic.mac1609_4 	ReceivedBroadcasts 	0
scalar IntersectionExampleScenario.node[8].nic.mac1609_4 	SentPackets 	0
scalar IntersectionExampleScenario.node[8].nic.mac1609_4 	SNIRLostPackets 	0
scalar IntersectionExampleScenario.node[8].nic.mac1609_4 	RXTXLostPackets 	0
scalar IntersectionExampleScenario.node[8].nic.mac1609_4 	TotalLostPackets 	0
scalar IntersectionExampleScenario.node[8].nic.mac1609_4 	DroppedPacketsInMac 	0
scalar IntersectionExampleScenario.node[8].nic.mac1609_4 	TooLittleTime 	0
scalar IntersectionExampleScenario.node[8].nic.mac1609_4 	TimesIntoBackoff 	0
scalar IntersectionExampleScenario.node[8].nic.mac1609_4 	SlotsBackoff 	0
scalar IntersectionExampleScenario.node[8].nic.mac1609_4 	NumInternalContention 	0
scalar IntersectionExampleScenario.node[8].nic.mac1609_4 	totalBusyTime 	0
scalar IntersectionExampleScenario.node[8].veinsmobility 	startTime 	23
scalar IntersectionExampleScenario.node[8].veinsmobility 	totalTime 	52.25
scalar IntersectionExampleScenario.node[8].veinsmobility 	stopTime 	75.5
scalar IntersectionExampleScenario.node[8].veinsmobility 	minSpeed 	0
scalar IntersectionExampleScenario.node[8].veinsmobility 	maxSpeed 	15.599479675293
scalar IntersectionExampleScenario.node[8].veinsmobility 	totalDistance 	555.95073099196
scalar IntersectionExampleScenario.node[8].veinsmobility 	totalCO2Emission 	151.59703623251
scalar IntersectionExampleScenario.node[14].appl 	VehicleRemoved 	0
scalar IntersectionExampleScenario.node[14].appl 	ArrivedAtDest 	1
scalar IntersectionExampleScenario.node[14].appl 	IntersectionEnterTime 	31
scalar IntersectionExampleScenario.node[14].appl 	IntersectionExitTime 	59.841314444406
scalar IntersectionExampleScenario.node[14].appl 	NumberOfCollisions 	0
scalar IntersectionExampleScenario.node[14].nic.phy80211p 	busyTime 	0
scalar IntersectionExampleScenario.node[14].nic.mac1609_4 	ReceivedUnicastPackets 	0
scalar IntersectionExampleScenario.node[14].nic.mac1609_4 	ReceivedBroadcasts 	0
scalar IntersectionExampleScenario.node[14].nic.mac1609_4 	SentPackets 	0
scalar IntersectionExampleScenario.node[14].nic.mac1609_4 	SNIRLostPackets 	0
scalar IntersectionExampleScenario.node[14].nic.mac1609_4 	RXTXLostPackets 	0
scalar IntersectionExampleScenario.node[14].nic.mac1609_4 	TotalLostPackets 	0
scalar IntersectionExampleScenario.node[14].nic.mac1609_4 	DroppedPacketsInMac 	0
scalar IntersectionExampleScenario.node[14].nic.mac1609_4 	TooLittleTime 	0
scalar IntersectionExampleScenario.node[14].nic.mac1609_4 	TimesIntoBackoff 	0
scalar IntersectionExampleScenario.node[14].nic.mac1609_4 	SlotsBackoff 	0
scalar IntersectionExampleScenario.node[14].nic.mac1609_4 	NumInternalContention 	0
scalar IntersectionExampleScenario.node[14].nic.mac1609_4 	totalBusyTime 	0
scalar IntersectionExampleScenario.node[14].veinsmobility 	startTime 	31
scalar IntersectionExampleScenario.node[14].veinsmobility 	totalTime 	44.25
scalar IntersectionExampleScenario.node[14].veinsmobility 	stopTime 	75.5
scalar IntersectionExampleScenario.node[14].veinsmobility 	minSpeed 	5.586998462677
scalar IntersectionExampleScenario.node[14].veinsmobility 	maxSpeed 	15.78933429718
scalar IntersectionExampleScenario.node[14].veinsmobility 	totalDistance 	574.62269592285
scalar IntersectionExampleScenario.node[14].veinsmobility 	totalCO2Emission 	137.91580069423
scalar IntersectionExampleScenario.node[16].appl 	VehicleRemoved 	0
scalar IntersectionExampleScenario.node[16].appl 	ArrivedAtDest 	1
scalar IntersectionExampleScenario.node[16].appl 	IntersectionEnterTime 	36.25
scalar IntersectionExampleScenario.node[16].appl 	IntersectionExitTime 	61.261237176484
scalar IntersectionExampleScenario.node[16].appl 	NumberOfCollisions 	0
scalar IntersectionExampleScenario.node[16].nic.phy80211p 	busyTime 	0
scalar IntersectionExampleScenario.node[16].nic.mac1609_4 	ReceivedUnicastPackets 	0
scalar IntersectionExampleScenario.node[16].nic.mac1609_4 	ReceivedBroadcasts 	0
scalar IntersectionExampleScenario.node[16].nic.mac1609_4 	SentPackets 	0
scalar IntersectionExampleScenario.node[16].nic.mac1609_4 	SNIRLostPackets 	0
scalar IntersectionExampleScenario.node[16].nic.mac1609_4 	RXTXLostPackets 	0
scalar IntersectionExampleScenario.node[16].nic.mac1609_4 	TotalLostPackets 	0
scalar IntersectionExampleScenario.node[16].nic.mac1609_4 	DroppedPacketsInMac 	0
scalar IntersectionExampleScenario.node[16].nic.mac1609_4 	TooLittleTime 	0
scalar IntersectionExampleScenario.node[16].nic.mac1609_4 	TimesIntoBackoff 	0
scalar IntersectionExampleScenario.node[16].nic.mac1609_4 	SlotsBackoff 	0
scalar IntersectionExampleScenario.node[16].nic.mac1609_4 	NumInternalContention 	0
scalar IntersectionExampleScenario.node[16].nic.mac1609_4 	totalBusyTime 	0
scalar IntersectionExampleScenario.node[16].veinsmobility 	startTime 	36.25
scalar IntersectionExampleScenario.node[16].veinsmobility 	totalTime 	41
scalar IntersectionExampleScenario.node[16].veinsmobility 	stopTime 	77.5
scalar IntersectionExampleScenario.node[16].veinsmobility 	minSpeed 	5.6500000953674
scalar IntersectionExampleScenario.node[16].veinsmobility 	maxSpeed 	16.27499961853
scalar IntersectionExampleScenario.node[16].veinsmobility 	totalDistance 	550.69880236855
scalar IntersectionExampleScenario.node[16].veinsmobility 	totalCO2Emission 	141.11544838991
scalar IntersectionExampleScenario.node[17].appl 	VehicleRemoved 	0
scalar IntersectionExampleScenario.node[17].appl 	ArrivedAtDest 	1
scalar IntersectionExampleScenario.node[17].appl 	IntersectionEnterTime 	36.75
scalar IntersectionExampleScenario.node[17].appl 	IntersectionExitTime 	61.833672100998
scalar IntersectionExampleScenario.node[17].appl 	NumberOfCollisions 	0
scalar IntersectionExampleScenario.node[17].nic.phy80211p 	busyTime 	0
scalar IntersectionExampleScenario.node[17].nic.mac1609_4 	ReceivedUnicastPackets 	0
scalar IntersectionExampleScenario.node[17].nic.mac1609_4 	ReceivedBroadcasts 	0
scalar IntersectionExampleScenario.node[17].nic.mac1609_4 	SentPackets 	0
scalar IntersectionExampleScenario.node[17].nic.mac1609_4 	SNIRLostPackets 	0
scalar IntersectionExampleScenario.node[17].nic.mac1609_4 	RXTXLostPackets 	0
scalar IntersectionExampleScenario.node[17].nic.mac1609_4 	TotalLostPackets 	0
scalar IntersectionExampleScenario.node[17].nic.mac1609_4 	DroppedPacketsInMac 	0
scalar IntersectionExampleScenario.node[17].nic.mac1609_4 	TooLittleTime 	0
scalar IntersectionExampleScenario.node[17].nic.mac1609_4 	TimesIntoBackoff 	0
scalar IntersectionExampleScenario.node[17].nic.mac1609_4 	SlotsBackoff 	0
scalar IntersectionExampleScenario.node[17].nic.mac1609_4 	NumInternalContention 	0
scalar IntersectionExampleScenario.node[17].nic.mac1609_4 	totalBusyTime 	0
scalar IntersectionExampleScenario.node[17].veinsmobility 	startTime 	36.75
scalar IntersectionExampleScenario.node[17].veinsmobility 	totalTime 	40.75
scalar IntersectionExampleScenario.node[17].veinsmobility 	stopTime 	77.75
scalar IntersectionExampleScenario.node[17].veinsmobility 	minSpeed 	5.6500000953674
scalar IntersectionExampleScenario.node[17].veinsmobility 	maxSpeed 	15.64999961853
scalar IntersectionExampleScenario.node[17].veinsmobility 	totalDistance 	551.96179199219
scalar IntersectionExampleScenario.node[17].veinsmobility 	totalCO2Emission 	121.44386382208
scalar IntersectionExampleScenario.node[11].appl 	VehicleRemoved 	0
scalar IntersectionExampleScenario.node[11].appl 	ArrivedAtDest 	1
scalar IntersectionExampleScenario.node[11].appl 	IntersectionEnterTime 	26.25
scalar IntersectionExampleScenario.node[11].appl 	IntersectionExitTime 	67.59191771003
scalar IntersectionExampleScenario.node[11].appl 	NumberOfCollisions 	0
scalar IntersectionExampleScenario.node[11].nic.phy80211p 	busyTime 	0
scalar IntersectionExampleScenario.node[11].nic.mac1609_4 	ReceivedUnicastPackets 	0
scalar IntersectionExampleScenario.node[11].nic.mac1609_4 	ReceivedBroadcasts 	0
scalar IntersectionExampleScenario.node[11].nic.mac1609_4 	SentPackets 	0
scalar IntersectionExampleScenario.node[11].nic.mac1609_4 	SNIRLostPackets 	0
scalar IntersectionExampleScenario.node[11].nic.mac1609_4 	RXTXLostPackets 	0
scalar IntersectionExampleScenario.node[11].nic.mac1609_4 	TotalLostPackets 	0
scalar IntersectionExampleScenario.node[11].nic.mac1609_4 	DroppedPacketsInMac 	0
scalar IntersectionExampleScenario.node[11].nic.mac1609_4 	TooLittleTime 	0
scalar IntersectionExampleScenario.node[11].nic.mac1609_4 	TimesIntoBackoff 	0
scalar IntersectionExampleScenario.node[11].nic.mac1609_4 	SlotsBackoff 	0
scalar IntersectionExampleScenario.node[11].nic.mac1609_4 	NumInternalContention 	0
scalar IntersectionExampleScenario.node[11].nic.mac1609_4 	totalBusyTime 	0
scalar IntersectionExampleScenario.node[11].veinsmobility 	startTime 	26.25
scalar IntersectionExampleScenario.node[11].veinsmobility 	totalTime 	58.25
scalar IntersectionExampleScenario.node[11].veinsmobility 	stopTime 	84.75
scalar IntersectionExampleScenario.node[11].veinsmobility 	minSpeed 	0
scalar IntersectionExampleScenario.node[11].veinsmobility 	maxSpeed 	15.25
scalar IntersectionExampleScenario.node[11].veinsmobility 	totalDistance 	544.46385861785
scalar IntersectionExampleScenario.node[11].veinsmobility 	totalCO2Emission 	147.48599564102
scalar IntersectionExampleScenario.node[13].appl 	VehicleRemoved 	0
scalar IntersectionExampleScenario.node[13].appl 	ArrivedAtDest 	1
scalar IntersectionExampleScenario.node[13].appl 	IntersectionEnterTime 	30.5
scalar IntersectionExampleScenario.node[13].appl 	IntersectionExitTime 	70.089202814735
scalar IntersectionExampleScenario.node[13].appl 	NumberOfCollisions 	0
scalar IntersectionExampleScenario.node[13].nic.phy80211p 	busyTime 	0
scalar IntersectionExampleScenario.node[13].nic.mac1609_4 	ReceivedUnicastPackets 	0
scalar IntersectionExampleScenario.node[13].nic.mac1609_4 	ReceivedBroadcasts 	0
scalar IntersectionExampleScenario.node[13].nic.mac1609_4 	SentPackets 	0
scalar IntersectionExampleScenario.node[13].nic.mac1609_4 	SNIRLostPackets 	0
scalar IntersectionExampleScenario.node[13].nic.mac1609_4 	RXTXLostPackets 	0
scalar IntersectionExampleScenario.node[13].nic.mac1609_4 	TotalLostPackets 	0
scalar IntersectionExampleScenario.node[13].nic.mac1609_4 	DroppedPacketsInMac 	0
scalar IntersectionExampleScenario.node[13].nic.mac1609_4 	TooLittleTime 	0
scalar IntersectionExampleScenario.node[13].nic.mac1609_4 	TimesIntoBackoff 	0
scalar IntersectionExampleScenario.node[13].nic.mac1609_4 	SlotsBackoff 	0
scalar IntersectionExampleScenario.node[13].nic.mac1609_4 	NumInternalContention 	0
scalar IntersectionExampleScenario.node[13].nic.mac1609_4 	totalBusyTime 	0
scalar IntersectionExampleScenario.node[13].veinsmobility 	startTime 	30.5
scalar IntersectionExampleScenario.node[13].veinsmobility 	totalTime 	56.25
scalar IntersectionExampleScenario.node[13].veinsmobility 	stopTime 	87
scalar IntersectionExampleScenario.node[13].veinsmobility 	minSpeed 	0
scalar IntersectionExampleScenario.node[13].veinsmobility 	maxSpeed 	15.388745307922
scalar IntersectionExampleScenario.node[13].veinsmobility 	totalDistance 	550.89674620296
scalar IntersectionExampleScenario.node[13].veinsmobility 	totalCO2Emission 	147.8775857765
scalar IntersectionExampleScenario.node[18].appl 	VehicleRemoved 	0
scalar IntersectionExampleScenario.node[18].appl 	ArrivedAtDest 	1
scalar IntersectionExampleScenario.node[18].appl 	IntersectionEnterTime 	39.75
scalar IntersectionExampleScenario.node[18].appl 	IntersectionExitTime 	72.026185196126
scalar IntersectionExampleScenario.node[18].appl 	NumberOfCollisions 	0
scalar IntersectionExampleScenario.node[18].nic.phy80211p 	busyTime 	0
scalar IntersectionExampleScenario.node[18].nic.mac1609_4 	ReceivedUnicastPackets 	0
scalar IntersectionExampleScenario.node[18].nic.mac1609_4 	ReceivedBroadcasts 	0
scalar IntersectionExampleScenario.node[18].nic.mac1609_4 	SentPackets 	0
scalar IntersectionExampleScenario.node[18].nic.mac1609_4 	SNIRLostPackets 	0
scalar IntersectionExampleScenario.node[18].nic.mac1609_4 	RXTXLostPackets 	0
scalar IntersectionExampleScenario.node[18].nic.mac1609_4 	TotalLostPackets 	0
scalar IntersectionExampleScenario.node[18].nic.mac1609_4 	DroppedPacketsInMac 	0
scalar IntersectionExampleScenario.node[18].nic.mac1609_4 	TooLittleTime 	0
scalar IntersectionExampleScenario.node[18].nic.mac1609_4 	TimesIntoBackoff 	0
scalar IntersectionExampleScenario.node[18].nic.mac1609_4 	SlotsBackoff 	0
scalar IntersectionExampleScenario.node[18].nic.mac1609_4 	NumInternalContention 	0
scalar IntersectionExampleScenario.node[18].nic.mac1609_4 	totalBusyTime 	0
scalar IntersectionExampleScenario.node[18].veinsmobility 	startTime 	39.75
scalar IntersectionExampleScenario.node[18].veinsmobility 	totalTime 	48
scalar IntersectionExampleScenario.node[18].veinsmobility 	stopTime 	88
scalar IntersectionExampleScenario.node[18].veinsmobility 	minSpeed 	2.0807175636292
scalar IntersectionExampleScenario.node[18].veinsmobility 	maxSpeed 	16.27499961853
scalar IntersectionExampleScenario.node[18].veinsmobility 	totalDistance 	554.78338623047
scalar IntersectionExampleScenario.node[18].veinsmobility 	totalCO2Emission 	141.46506414233
scalar IntersectionExampleScenario.node[19].appl 	VehicleRemoved 	0
scalar IntersectionExampleScenario.node[19].appl 	ArrivedAtDest 	1
scalar IntersectionExampleScenario.node[19].appl 	IntersectionEnterTime 	43.5
scalar IntersectionExampleScenario.node[19].appl 	IntersectionExitTime 	74.048360668123
scalar IntersectionExampleScenario.node[19].appl 	NumberOfCollisions 	0
scalar IntersectionExampleScenario.node[19].nic.phy80211p 	busyTime 	0
scalar IntersectionExampleScenario.node[19].nic.mac1609_4 	ReceivedUnicastPackets 	0
scalar IntersectionExampleScenario.node[19].nic.mac1609_4 	ReceivedBroadcasts 	0
scalar IntersectionExampleScenario.node[19].nic.mac1609_4 	SentPackets 	0
scalar IntersectionExampleScenario.node[19].nic.mac1609_4 	SNIRLostPackets 	0
scalar IntersectionExampleScenario.node[19].nic.mac1609_4 	RXTXLostPackets 	0
scalar IntersectionExampleScenario.node[19].nic.mac1609_4 	TotalLostPackets 	0
scalar IntersectionExampleScenario.node[19].nic.mac1609_4 	DroppedPacketsInMac 	0
scalar IntersectionExampleScenario.node[19].nic.mac1609_4 	TooLittleTime 	0
scalar IntersectionExampleScenario.node[19].nic.mac1609_4 	TimesIntoBackoff 	0
scalar IntersectionExampleScenario.node[19].nic.mac1609_4 	SlotsBackoff 	0
scalar IntersectionExampleScenario.node[19].nic.mac1609_4 	NumInternalContention 	0
scalar IntersectionExampleScenario.node[19].nic.mac1609_4 	totalBusyTime 	0
scalar IntersectionExampleScenario.node[19].veinsmobility 	startTime 	43.5
scalar IntersectionExampleScenario.node[19].veinsmobility 	totalTime 	47
scalar IntersectionExampleScenario.node[19].veinsmobility 	stopTime 	90.75
scalar IntersectionExampleScenario.node[19].veinsmobility 	minSpeed 	4.1291799545288
scalar IntersectionExampleScenario.node[19].veinsmobility 	maxSpeed 	15.875
scalar IntersectionExampleScenario.node[19].veinsmobility 	totalDistance 	553.89053658288
scalar IntersectionExampleScenario.node[19].veinsmobility 	totalCO2Emission 	141.07935818148
scalar IntersectionExampleScenario.node[15].appl 	VehicleRemoved 	0
scalar IntersectionExampleScenario.node[15].appl 	ArrivedAtDest 	1
scalar IntersectionExampleScenario.node[15].appl 	IntersectionEnterTime 	36
scalar IntersectionExampleScenario.node[15].appl 	IntersectionExitTime 	77.596195834776
scalar IntersectionExampleScenario.node[15].appl 	NumberOfCollisions 	0
scalar IntersectionExampleScenario.node[15].nic.phy80211p 	busyTime 	0
scalar IntersectionExampleScenario.node[15].nic.mac1609_4 	ReceivedUnicastPackets 	0
scalar IntersectionExampleScenario.node[15].nic.mac1609_4 	ReceivedBroadcasts 	0
scalar IntersectionExampleScenario.node[15].nic.mac1609_4 	SentPackets 	0
scalar IntersectionExampleScenario.node[15].nic.mac1609_4 	SNIRLostPackets 	0
scalar IntersectionExampleScenario.node[15].nic.mac1609_4 	RXTXLostPackets 	0
scalar IntersectionExampleScenario.node[15].nic.mac1609_4 	TotalLostPackets 	0
scalar IntersectionExampleScenario.node[15].nic.mac1609_4 	DroppedPacketsInMac 	0
scalar IntersectionExampleScenario.node[15].nic.mac1609_4 	TooLittleTime 	0
scalar IntersectionExampleScenario.node[15].nic.mac1609_4 	TimesIntoBackoff 	0
scalar IntersectionExampleScenario.node[15].nic.mac1609_4 	SlotsBackoff 	0
scalar IntersectionExampleScenario.node[15].nic.mac1609_4 	NumInternalContention 	0
scalar IntersectionExampleScenario.node[15].nic.mac1609_4 	totalBusyTime 	0
scalar IntersectionExampleScenario.node[15].veinsmobility 	startTime 	36
scalar IntersectionExampleScenario.node[15].veinsmobility 	totalTime 	58.5
scalar IntersectionExampleScenario.node[15].veinsmobility 	stopTime 	94.75
scalar IntersectionExampleScenario.node[15].veinsmobility 	minSpeed 	0
scalar IntersectionExampleScenario.node[15].veinsmobility 	maxSpeed 	15.25
scalar IntersectionExampleScenario.node[15].veinsmobility 	totalDistance 	545.00277615935
scalar IntersectionExampleScenario.node[15].veinsmobility 	totalCO2Emission 	148.15644151024
scalar IntersectionExampleScenario.node[23].appl 	VehicleRemoved 	0
scalar IntersectionExampleScenario.node[23].appl 	ArrivedAtDest 	1
scalar IntersectionExampleScenario.node[23].appl 	IntersectionEnterTime 	49.5
scalar IntersectionExampleScenario.node[23].appl 	IntersectionExitTime 	80.054894627014
scalar IntersectionExampleScenario.node[23].appl 	NumberOfCollisions 	0
scalar IntersectionExampleScenario.node[23].nic.phy80211p 	busyTime 	0
scalar IntersectionExampleScenario.node[23].nic.mac1609_4 	ReceivedUnicastPackets 	0
scalar IntersectionExampleScenario.node[23].nic.mac1609_4 	ReceivedBroadcasts 	0
scalar IntersectionExampleScenario.node[23].nic.mac1609_4 	SentPackets 	0
scalar IntersectionExampleScenario.node[23].nic.mac1609_4 	SNIRLostPackets 	0
scalar IntersectionExampleScenario.node[23].nic.mac1609_4 	RXTXLostPackets 	0
scalar IntersectionExampleScenario.node[23].nic.mac1609_4 	TotalLostPackets 	0
scalar IntersectionExampleScenario.node[23].nic.mac1609_4 	DroppedPacketsInMac 	0
scalar IntersectionExampleScenario.node[23].nic.mac1609_4 	TooLittleTime 	0
scalar IntersectionExampleScenario.node[23].nic.mac1609_4 	TimesIntoBackoff 	0
scalar IntersectionExampleScenario.node[23].nic.mac1609_4 	SlotsBackoff 	0
scalar IntersectionExampleScenario.node[23].nic.mac1609_4 	NumInternalContention 	0
scalar IntersectionExampleScenario.node[23].nic.mac1609_4 	totalBusyTime 	0
scalar IntersectionExampleScenario.node[23].veinsmobility 	startTime 	49.5
scalar IntersectionExampleScenario.node[23].veinsmobility 	totalTime 	46.75
scalar IntersectionExampleScenario.node[23].veinsmobility 	stopTime 	96.5
scalar IntersectionExampleScenario.node[23].veinsmobility 	minSpeed 	2.3894913196564
scalar IntersectionExampleScenario.node[23].veinsmobility 	maxSpeed 	16.27499961853
scalar IntersectionExampleScenario.node[23].veinsmobility 	totalDistance 	544.34998732444
scalar IntersectionExampleScenario.node[23].veinsmobility 	totalCO2Emission 	140.01606682301
scalar IntersectionExampleScenario.node[27].appl 	VehicleRemoved 	0
scalar IntersectionExampleScenario.node[27].appl 	ArrivedAtDest 	1
scalar IntersectionExampleScenario.node[27].appl 	IntersectionEnterTime 	59.25
scalar IntersectionExampleScenario.node[27].appl 	IntersectionExitTime 	83.606726862025
scalar IntersectionExampleScenario.node[27].appl 	NumberOfCollisions 	0
scalar IntersectionExampleScenario.node[27].nic.phy80211p 	busyTime 	0
scalar IntersectionExampleScenario.node[27].nic.mac1609_4 	ReceivedUnicastPackets 	0
scalar IntersectionExampleScenario.node[27].nic.mac1609_4 	ReceivedBroadcasts 	0
scalar IntersectionExampleScenario.node[27].nic.mac1609_4 	SentPackets 	0
scalar IntersectionExampleScenario.node[27].nic.mac1609_4 	SNIRLostPackets 	0
scalar IntersectionExampleScenario.node[27].nic.mac1609_4 	RXTXLostPackets 	0
scalar IntersectionExampleScenario.node[27].nic.mac1609_4 	TotalLostPackets 	0
scalar IntersectionExampleScenario.node[27].nic.mac1609_4 	DroppedPacketsInMac 	0
scalar IntersectionExampleScenario.node[27].nic.mac1609_4 	TooLittleTime 	0
scalar IntersectionExampleScenario.node[27].nic.mac1609_4 	TimesIntoBackoff 	0
scalar IntersectionExampleScenario.node[27].nic.mac1609_4 	SlotsBackoff 	0
scalar IntersectionExampleScenario.node[27].nic.mac1609_4 	NumInternalContention 	0
scalar IntersectionExampleScenario.node[27].nic.mac1609_4 	totalBusyTime 	0
scalar IntersectionExampleScenario.node[27].veinsmobility 	startTime 	59.25
scalar IntersectionExampleScenario.node[27].veinsmobility 	totalTime 	39.5
scalar IntersectionExampleScenario.node[27].veinsmobility 	stopTime 	99
scalar IntersectionExampleScenario.node[27].veinsmobility 	minSpeed 	5.6500000953674
scalar IntersectionExampleScenario.node[27].veinsmobility 	maxSpeed 	16.731395721436
scalar IntersectionExampleScenario.node[27].veinsmobility 	totalDistance 	551.40594513252
scalar IntersectionExampleScenario.node[27].veinsmobility 	totalCO2Emission 	146.24882997433
scalar IntersectionExampleScenario.node[21].appl 	VehicleRemoved 	0
scalar IntersectionExampleScenario.node[21].appl 	ArrivedAtDest 	1
scalar IntersectionExampleScenario.node[21].appl 	IntersectionEnterTime 	46
scalar IntersectionExampleScenario.node[21].appl 	IntersectionExitTime 	87.261576354329
scalar IntersectionExampleScenario.node[21].appl 	NumberOfCollisions 	0
scalar IntersectionExampleScenario.node[21].nic.phy80211p 	busyTime 	0
scalar IntersectionExampleScenario.node[21].nic.mac1609_4 	ReceivedUnicastPackets 	0
scalar IntersectionExampleScenario.node[21].nic.mac1609_4 	ReceivedBroadcasts 	0
scalar IntersectionExampleScenario.node[21].nic.mac1609_4 	SentPackets 	0
scalar IntersectionExampleScenario.node[21].nic.mac1609_4 	SNIRLostPackets 	0
scalar IntersectionExampleScenario.node[21].nic.mac1609_4 	RXTXLostPackets 	0
scalar IntersectionExampleScenario.node[21].nic.mac1609_4 	TotalLostPackets 	0
scalar IntersectionExampleScenario.node[21].nic.mac1609_4 	DroppedPacketsInMac 	0
scalar IntersectionExampleScenario.node[21].nic.mac1609_4 	TooLittleTime 	0
scalar IntersectionExampleScenario.node[21].nic.mac1609_4 	TimesIntoBackoff 	0
scalar IntersectionExampleScenario.node[21].nic.mac1609_4 	SlotsBackoff 	0
scalar IntersectionExampleScenario.node[21].nic.mac1609_4 	NumInternalContention 	0
scalar IntersectionExampleScenario.node[21].nic.mac1609_4 	totalBusyTime 	0
scalar IntersectionExampleScenario.node[21].veinsmobility 	startTime 	46
scalar IntersectionExampleScenario.node[21].veinsmobility 	totalTime 	56.25
scalar IntersectionExampleScenario.node[21].veinsmobility 	stopTime 	102.5
scalar IntersectionExampleScenario.node[21].veinsmobility 	minSpeed 	0
scalar IntersectionExampleScenario.node[21].veinsmobility 	maxSpeed 	16.89999961853
scalar IntersectionExampleScenario.node[21].veinsmobility 	totalDistance 	552.88790893555
scalar IntersectionExampleScenario.node[21].veinsmobility 	totalCO2Emission 	160.24156517615
scalar IntersectionExampleScenario.node[20].appl 	VehicleRemoved 	0
scalar IntersectionExampleScenario.node[20].appl 	ArrivedAtDest 	1
scalar IntersectionExampleScenario.node[20].appl 	IntersectionEnterTime 	44.75
scalar IntersectionExampleScenario.node[20].appl 	IntersectionExitTime 	86.62056616004
scalar IntersectionExampleScenario.node[20].appl 	NumberOfCollisions 	0
scalar IntersectionExampleScenario.node[20].nic.phy80211p 	busyTime 	0
scalar IntersectionExampleScenario.node[20].nic.mac1609_4 	ReceivedUnicastPackets 	0
scalar IntersectionExampleScenario.node[20].nic.mac1609_4 	ReceivedBroadcasts 	0
scalar IntersectionExampleScenario.node[20].nic.mac1609_4 	SentPackets 	0
scalar IntersectionExampleScenario.node[20].nic.mac1609_4 	SNIRLostPackets 	0
scalar IntersectionExampleScenario.node[20].nic.mac1609_4 	RXTXLostPackets 	0
scalar IntersectionExampleScenario.node[20].nic.mac1609_4 	TotalLostPackets 	0
scalar IntersectionExampleScenario.node[20].nic.mac1609_4 	DroppedPacketsInMac 	0
scalar IntersectionExampleScenario.node[20].nic.mac1609_4 	TooLittleTime 	0
scalar IntersectionExampleScenario.node[20].nic.mac1609_4 	TimesIntoBackoff 	0
scalar IntersectionExampleScenario.node[20].nic.mac1609_4 	SlotsBackoff 	0
scalar IntersectionExampleScenario.node[20].nic.mac1609_4 	NumInternalContention 	0
scalar IntersectionExampleScenario.node[20].nic.mac1609_4 	totalBusyTime 	0
scalar IntersectionExampleScenario.node[20].veinsmobility 	startTime 	44.75
scalar IntersectionExampleScenario.node[20].veinsmobility 	totalTime 	57.75
scalar IntersectionExampleScenario.node[20].veinsmobility 	stopTime 	102.75
scalar IntersectionExampleScenario.node[20].veinsmobility 	minSpeed 	0
scalar IntersectionExampleScenario.node[20].veinsmobility 	maxSpeed 	16.5
scalar IntersectionExampleScenario.node[20].veinsmobility 	totalDistance 	543.05305386931
scalar IntersectionExampleScenario.node[20].veinsmobility 	totalCO2Emission 	157.03821918852
scalar IntersectionExampleScenario.node[22].appl 	VehicleRemoved 	0
scalar IntersectionExampleScenario.node[22].appl 	ArrivedAtDest 	1
scalar IntersectionExampleScenario.node[22].appl 	IntersectionEnterTime 	49.5
scalar IntersectionExampleScenario.node[22].appl 	IntersectionExitTime 	88.366875870561
scalar IntersectionExampleScenario.node[22].appl 	NumberOfCollisions 	0
scalar IntersectionExampleScenario.node[22].nic.phy80211p 	busyTime 	0
scalar IntersectionExampleScenario.node[22].nic.mac1609_4 	ReceivedUnicastPackets 	0
scalar IntersectionExampleScenario.node[22].nic.mac1609_4 	ReceivedBroadcasts 	0
scalar IntersectionExampleScenario.node[22].nic.mac1609_4 	SentPackets 	0
scalar IntersectionExampleScenario.node[22].nic.mac1609_4 	SNIRLostPackets 	0
scalar IntersectionExampleScenario.node[22].nic.mac1609_4 	RXTXLostPackets 	0
scalar IntersectionExampleScenario.node[22].nic.mac1609_4 	TotalLostPackets 	0
scalar IntersectionExampleScenario.node[22].nic.mac1609_4 	DroppedPacketsInMac 	0
scalar IntersectionExampleScenario.node[22].nic.mac1609_4 	TooLittleTime 	0
scalar IntersectionExampleScenario.node[22].nic.mac1609_4 	TimesIntoBackoff 	0
scalar IntersectionExampleScenario.node[22].nic.mac1609_4 	SlotsBackoff 	0
scalar IntersectionExampleScenario.node[22].nic.mac1609_4 	NumInternalContention 	0
scalar IntersectionExampleScenario.node[22].nic.mac1609_4 	totalBusyTime 	0
scalar IntersectionExampleScenario.node[22].veinsmobility 	startTime 	49.5
scalar IntersectionExampleScenario.node[22].veinsmobility 	totalTime 	54.5
scalar IntersectionExampleScenario.node[22].veinsmobility 	stopTime 	104.25
scalar IntersectionExampleScenario.node[22].veinsmobility 	minSpeed 	0
scalar IntersectionExampleScenario.node[22].veinsmobility 	maxSpeed 	16.27499961853
scalar IntersectionExampleScenario.node[22].veinsmobility 	totalDistance 	549.54685130862
scalar IntersectionExampleScenario.node[22].veinsmobility 	totalCO2Emission 	150.86836316685
scalar IntersectionExampleScenario.node[29].appl 	VehicleRemoved 	0
scalar IntersectionExampleScenario.node[29].appl 	ArrivedAtDest 	1
scalar IntersectionExampleScenario.node[29].appl 	IntersectionEnterTime 	63.5
scalar IntersectionExampleScenario.node[29].appl 	IntersectionExitTime 	89.863155110535
scalar IntersectionExampleScenario.node[29].appl 	NumberOfCollisions 	0
scalar IntersectionExampleScenario.node[29].nic.phy80211p 	busyTime 	0
scalar IntersectionExampleScenario.node[29].nic.mac1609_4 	ReceivedUnicastPackets 	0
scalar IntersectionExampleScenario.node[29].nic.mac1609_4 	ReceivedBroadcasts 	0
scalar IntersectionExampleScenario.node[29].nic.mac1609_4 	SentPackets 	0
scalar IntersectionExampleScenario.node[29].nic.mac1609_4 	SNIRLostPackets 	0
scalar IntersectionExampleScenario.node[29].nic.mac1609_4 	RXTXLostPackets 	0
scalar IntersectionExampleScenario.node[29].nic.mac1609_4 	TotalLostPackets 	0
scalar IntersectionExampleScenario.node[29].nic.mac1609_4 	DroppedPacketsInMac 	0
scalar IntersectionExampleScenario.node[29].nic.mac1609_4 	TooLittleTime 	0
scalar IntersectionExampleScenario.node[29].nic.mac1609_4 	TimesIntoBackoff 	0
scalar IntersectionExampleScenario.node[29].nic.mac1609_4 	SlotsBackoff 	0
scalar IntersectionExampleScenario.node[29].nic.mac1609_4 	NumInternalContention 	0
scalar IntersectionExampleScenario.node[29].nic.mac1609_4 	totalBusyTime 	0
scalar IntersectionExampleScenario.node[29].veinsmobility 	startTime 	63.5
scalar IntersectionExampleScenario.node[29].veinsmobility 	totalTime 	43
scalar IntersectionExampleScenario.node[29].veinsmobility 	stopTime 	106.75
scalar IntersectionExampleScenario.node[29].veinsmobility 	minSpeed 	5.6500000953674
scalar IntersectionExampleScenario.node[29].veinsmobility 	maxSpeed 	15.64999961853
scalar IntersectionExampleScenario.node[29].veinsmobility 	totalDistance 	543.4306005703
scalar IntersectionExampleScenario.node[29].veinsmobility 	totalCO2Emission 	136.98063434968
scalar IntersectionExampleScenario.node[24].appl 	VehicleRemoved 	0
scalar IntersectionExampleScenario.node[24].appl 	ArrivedAtDest 	1
scalar IntersectionExampleScenario.node[24].appl 	IntersectionEnterTime 	51
scalar IntersectionExampleScenario.node[24].appl 	IntersectionExitTime 	90.831448257028
scalar IntersectionExampleScenario.node[24].appl 	NumberOfCollisions 	0
scalar IntersectionExampleScenario.node[24].nic.phy80211p 	busyTime 	0
scalar IntersectionExampleScenario.node[24].nic.mac1609_4 	ReceivedUnicastPackets 	0
scalar IntersectionExampleScenario.node[24].nic.mac1609_4 	ReceivedBroadcasts 	0
scalar IntersectionExampleScenario.node[24].nic.mac1609_4 	SentPackets 	0
scalar IntersectionExampleScenario.node[24].nic.mac1609_4 	SNIRLostPackets 	0
scalar IntersectionExampleScenario.node[24].nic.mac1609_4 	RXTXLostPackets 	0
scalar IntersectionExampleScenario.node[24].nic.mac1609_4 	TotalLostPackets 	0
scalar IntersectionExampleScenario.node[24].nic.mac1609_4 	DroppedPacketsInMac 	0
scalar IntersectionExampleScenario.node[24].nic.mac1609_4 	TooLittleTime 	0
scalar IntersectionExampleScenario.node[24].nic.mac1609_4 	TimesIntoBackoff 	0
scalar IntersectionExampleScenario.node[24].nic.mac1609_4 	SlotsBackoff 	0
scalar IntersectionExampleScenario.node[24].nic.mac1609_4 	NumInternalContention 	0
scalar IntersectionExampleScenario.node[24].nic.mac1609_4 	totalBusyTime 	0
scalar IntersectionExampleScenario.node[24].veinsmobility 	startTime 	51
scalar IntersectionExampleScenario.node[24].veinsmobility 	totalTime 	56.5
scalar IntersectionExampleScenario.node[24].veinsmobility 	stopTime 	107.75
scalar IntersectionExampleScenario.node[24].veinsmobility 	minSpeed 	0
scalar IntersectionExampleScenario.node[24].veinsmobility 	maxSpeed 	15.64999961853
scalar IntersectionExampleScenario.node[24].veinsmobility 	totalDistance 	565.29734177896
scalar IntersectionExampleScenario.node[24].veinsmobility 	totalCO2Emission 	149.81246731505
scalar IntersectionExampleScenario.node[25].appl 	VehicleRemoved 	0
scalar IntersectionExampleScenario.node[25].appl 	ArrivedAtDest 	1
scalar IntersectionExampleScenario.node[25].appl 	IntersectionEnterTime 	56
scalar IntersectionExampleScenario.node[25].appl 	IntersectionExitTime 	93.260333151673
scalar IntersectionExampleScenario.node[25].appl 	NumberOfCollisions 	0
scalar IntersectionExampleScenario.node[25].nic.phy80211p 	busyTime 	0
scalar IntersectionExampleScenario.node[25].nic.mac1609_4 	ReceivedUnicastPackets 	0
scalar IntersectionExampleScenario.node[25].nic.mac1609_4 	ReceivedBroadcasts 	0
scalar IntersectionExampleScenario.node[25].nic.mac1609_4 	SentPackets 	0
scalar IntersectionExampleScenario.node[25].nic.mac1609_4 	SNIRLostPackets 	0
scalar IntersectionExampleScenario.node[25].nic.mac1609_4 	RXTXLostPackets 	0
scalar IntersectionExampleScenario.node[25].nic.mac1609_4 	TotalLostPackets 	0
scalar IntersectionExampleScenario.node[25].nic.mac1609_4 	DroppedPacketsInMac 	0
scalar IntersectionExampleScenario.node[25].nic.mac1609_4 	TooLittleTime 	0
scalar IntersectionExampleScenario.node[25].nic.mac1609_4 	TimesIntoBackoff 	0
scalar IntersectionExampleScenario.node[25].nic.mac1609_4 	SlotsBackoff 	0
scalar IntersectionExampleScenario.node[25].nic.mac1609_4 	NumInternalContention 	0
scalar IntersectionExampleScenario.node[25].nic.mac1609_4 	totalBusyTime 	0
scalar IntersectionExampleScenario.node[25].veinsmobility 	startTime 	56
scalar IntersectionExampleScenario.node[25].veinsmobility 	totalTime 	52.5
scalar IntersectionExampleScenario.node[25].veinsmobility 	stopTime 	108.75
scalar IntersectionExampleScenario.node[25].veinsmobility 	minSpeed 	0
scalar IntersectionExampleScenario.node[25].veinsmobility 	maxSpeed 	16.125
scalar IntersectionExampleScenario.node[25].veinsmobility 	totalDistance 	559.62062835693
scalar IntersectionExampleScenario.node[25].veinsmobility 	totalCO2Emission 	146.1485647418
scalar IntersectionExampleScenario.node[31].appl 	VehicleRemoved 	0
scalar IntersectionExampleScenario.node[31].appl 	ArrivedAtDest 	1
scalar IntersectionExampleScenario.node[31].appl 	IntersectionEnterTime 	66
scalar IntersectionExampleScenario.node[31].appl 	IntersectionExitTime 	95.362573878549
scalar IntersectionExampleScenario.node[31].appl 	NumberOfCollisions 	0
scalar IntersectionExampleScenario.node[31].nic.phy80211p 	busyTime 	0
scalar IntersectionExampleScenario.node[31].nic.mac1609_4 	ReceivedUnicastPackets 	0
scalar IntersectionExampleScenario.node[31].nic.mac1609_4 	ReceivedBroadcasts 	0
scalar IntersectionExampleScenario.node[31].nic.mac1609_4 	SentPackets 	0
scalar IntersectionExampleScenario.node[31].nic.mac1609_4 	SNIRLostPackets 	0
scalar IntersectionExampleScenario.node[31].nic.mac1609_4 	RXTXLostPackets 	0
scalar IntersectionExampleScenario.node[31].nic.mac1609_4 	TotalLostPackets 	0
scalar IntersectionExampleScenario.node[31].nic.mac1609_4 	DroppedPacketsInMac 	0
scalar IntersectionExampleScenario.node[31].nic.mac1609_4 	TooLittleTime 	0
scalar IntersectionExampleScenario.node[31].nic.mac1609_4 	TimesIntoBackoff 	0
scalar IntersectionExampleScenario.node[31].nic.mac1609_4 	SlotsBackoff 	0
scalar IntersectionExampleScenario.node[31].nic.mac1609_4 	NumInternalContention 	0
scalar IntersectionExampleScenario.node[31].nic.mac1609_4 	totalBusyTime 	0
scalar IntersectionExampleScenario.node[31].veinsmobility 	startTime 	66
scalar IntersectionExampleScenario.node[31].veinsmobility 	totalTime 	45.75
scalar IntersectionExampleScenario.node[31].veinsmobility 	stopTime 	112
scalar IntersectionExampleScenario.node[31].veinsmobility 	minSpeed 	4.2704653739929
scalar IntersectionExampleScenario.node[31].veinsmobility 	maxSpeed 	16.27499961853
scalar IntersectionExampleScenario.node[31].veinsmobility 	totalDistance 	546.12014345007
scalar IntersectionExampleScenario.node[31].veinsmobility 	totalCO2Emission 	146.37909364391
scalar IntersectionExampleScenario.node[33].appl 	VehicleRemoved 	0
scalar IntersectionExampleScenario.node[33].appl 	ArrivedAtDest 	1
scalar IntersectionExampleScenario.node[33].appl 	IntersectionEnterTime 	72.5
scalar IntersectionExampleScenario.node[33].appl 	IntersectionExitTime 	98.054514952295
scalar IntersectionExampleScenario.node[33].appl 	NumberOfCollisions 	0
scalar IntersectionExampleScenario.node[33].nic.phy80211p 	busyTime 	0
scalar IntersectionExampleScenario.node[33].nic.mac1609_4 	ReceivedUnicastPackets 	0
scalar IntersectionExampleScenario.node[33].nic.mac1609_4 	ReceivedBroadcasts 	0
scalar IntersectionExampleScenario.node[33].nic.mac1609_4 	SentPackets 	0
scalar IntersectionExampleScenario.node[33].nic.mac1609_4 	SNIRLostPackets 	0
scalar IntersectionExampleScenario.node[33].nic.mac1609_4 	RXTXLostPackets 	0
scalar IntersectionExampleScenario.node[33].nic.mac1609_4 	TotalLostPackets 	0
scalar IntersectionExampleScenario.node[33].nic.mac1609_4 	DroppedPacketsInMac 	0
scalar IntersectionExampleScenario.node[33].nic.mac1609_4 	TooLittleTime 	0
scalar IntersectionExampleScenario.node[33].nic.mac1609_4 	TimesIntoBackoff 	0
scalar IntersectionExampleScenario.node[33].nic.mac1609_4 	SlotsBackoff 	0
scalar IntersectionExampleScenario.node[33].nic.mac1609_4 	NumInternalContention 	0
scalar IntersectionExampleScenario.node[33].nic.mac1609_4 	totalBusyTime 	0
scalar IntersectionExampleScenario.node[33].veinsmobility 	startTime 	72.5
scalar IntersectionExampleScenario.node[33].veinsmobility 	totalTime 	42.25
scalar IntersectionExampleScenario.node[33].veinsmobility 	stopTime 	115
scalar IntersectionExampleScenario.node[33].veinsmobility 	minSpeed 	5.6500000953674
scalar IntersectionExampleScenario.node[33].veinsmobility 	maxSpeed 	15.875
scalar IntersectionExampleScenario.node[33].veinsmobility 	totalDistance 	546.99547752649
scalar IntersectionExampleScenario.node[33].veinsmobility 	totalCO2Emission 	130.37611112173
scalar IntersectionExampleScenario.node[26].appl 	VehicleRemoved 	0
scalar IntersectionExampleScenario.node[26].appl 	ArrivedAtDest 	1
scalar IntersectionExampleScenario.node[26].appl 	IntersectionEnterTime 	56.5
scalar IntersectionExampleScenario.node[26].appl 	IntersectionExitTime 	99.520391880622
scalar IntersectionExampleScenario.node[26].appl 	NumberOfCollisions 	0
scalar IntersectionExampleScenario.node[26].nic.phy80211p 	busyTime 	0
scalar IntersectionExampleScenario.node[26].nic.mac1609_4 	ReceivedUnicastPackets 	0
scalar IntersectionExampleScenario.node[26].nic.mac1609_4 	ReceivedBroadcasts 	0
scalar IntersectionExampleScenario.node[26].nic.mac1609_4 	SentPackets 	0
scalar IntersectionExampleScenario.node[26].nic.mac1609_4 	SNIRLostPackets 	0
scalar IntersectionExampleScenario.node[26].nic.mac1609_4 	RXTXLostPackets 	0
scalar IntersectionExampleScenario.node[26].nic.mac1609_4 	TotalLostPackets 	0
scalar IntersectionExampleScenario.node[26].nic.mac1609_4 	DroppedPacketsInMac 	0
scalar IntersectionExampleScenario.node[26].nic.mac1609_4 	TooLittleTime 	0
scalar IntersectionExampleScenario.node[26].nic.mac1609_4 	TimesIntoBackoff 	0
scalar IntersectionExampleScenario.node[26].nic.mac1609_4 	SlotsBackoff 	0
scalar IntersectionExampleScenario.node[26].nic.mac1609_4 	NumInternalContention 	0
scalar IntersectionExampleScenario.node[26].nic.mac1609_4 	totalBusyTime 	0
scalar IntersectionExampleScenario.node[26].veinsmobility 	startTime 	56.5
scalar IntersectionExampleScenario.node[26].veinsmobility 	totalTime 	60.75
scalar IntersectionExampleScenario.node[26].veinsmobility 	stopTime 	117.5
scalar IntersectionExampleScenario.node[26].veinsmobility 	minSpeed 	0
scalar IntersectionExampleScenario.node[26].veinsmobility 	maxSpeed 	14.725749015808
scalar IntersectionExampleScenario.node[26].veinsmobility 	totalDistance 	546.36447812468
scalar IntersectionExampleScenario.node[26].veinsmobility 	totalCO2Emission 	145.28246332736
scalar IntersectionExampleScenario.node[28].appl 	VehicleRemoved 	0
scalar IntersectionExampleScenario.node[28].appl 	ArrivedAtDest 	1
scalar IntersectionExampleScenario.node[28].appl 	IntersectionEnterTime 	62.25
scalar IntersectionExampleScenario.node[28].appl 	IntersectionExitTime 	101.59253943339
scalar IntersectionExampleScenario.node[28].appl 	NumberOfCollisions 	0
scalar IntersectionExampleScenario.node[28].nic.phy80211p 	busyTime 	0
scalar IntersectionExampleScenario.node[28].nic.mac1609_4 	ReceivedUnicastPackets 	0
scalar IntersectionExampleScenario.node[28].nic.mac1609_4 	ReceivedBroadcasts 	0
scalar IntersectionExampleScenario.node[28].nic.mac1609_4 	SentPackets 	0
scalar IntersectionExampleScenario.node[28].nic.mac1609_4 	SNIRLostPackets 	0
scalar IntersectionExampleScenario.node[28].nic.mac1609_4 	RXTXLostPackets 	0
scalar IntersectionExampleScenario.node[28].nic.mac1609_4 	TotalLostPackets 	0
scalar IntersectionExampleScenario.node[28].nic.mac1609_4 	DroppedPacketsInMac 	0
scalar IntersectionExampleScenario.node[28].nic.mac1609_4 	TooLittleTime 	0
scalar IntersectionExampleScenario.node[28].nic.mac1609_4 	TimesIntoBackoff 	0
scalar IntersectionExampleScenario.node[28].nic.mac1609_4 	SlotsBackoff 	0
scalar IntersectionExampleScenario.node[28].nic.mac1609_4 	NumInternalContention 	0
scalar IntersectionExampleScenario.node[28].nic.mac1609_4 	totalBusyTime 	0
scalar IntersectionExampleScenario.node[28].veinsmobility 	startTime 	62.25
scalar IntersectionExampleScenario.node[28].veinsmobility 	totalTime 	56.25
scalar IntersectionExampleScenario.node[28].veinsmobility 	stopTime 	118.75
scalar IntersectionExampleScenario.node[28].veinsmobility 	minSpeed 	0
scalar IntersectionExampleScenario.node[28].veinsmobility 	maxSpeed 	14.39999961853
scalar IntersectionExampleScenario.node[28].veinsmobility 	totalDistance 	552.03823852539
scalar IntersectionExampleScenario.node[28].veinsmobility 	totalCO2Emission 	137.55354982993
scalar IntersectionExampleScenario.node[30].appl 	VehicleRemoved 	0
scalar IntersectionExampleScenario.node[30].appl 	ArrivedAtDest 	1
scalar IntersectionExampleScenario.node[30].appl 	IntersectionEnterTime 	64.25
scalar IntersectionExampleScenario.node[30].appl 	IntersectionExitTime 	103.5948687265
scalar IntersectionExampleScenario.node[30].appl 	NumberOfCollisions 	0
scalar IntersectionExampleScenario.node[30].nic.phy80211p 	busyTime 	0
scalar IntersectionExampleScenario.node[30].nic.mac1609_4 	ReceivedUnicastPackets 	0
scalar IntersectionExampleScenario.node[30].nic.mac1609_4 	ReceivedBroadcasts 	0
scalar IntersectionExampleScenario.node[30].nic.mac1609_4 	SentPackets 	0
scalar IntersectionExampleScenario.node[30].nic.mac1609_4 	SNIRLostPackets 	0
scalar IntersectionExampleScenario.node[30].nic.mac1609_4 	RXTXLostPackets 	0
scalar IntersectionExampleScenario.node[30].nic.mac1609_4 	TotalLostPackets 	0
scalar IntersectionExampleScenario.node[30].nic.mac1609_4 	DroppedPacketsInMac 	0
scalar IntersectionExampleScenario.node[30].nic.mac1609_4 	TooLittleTime 	0
scalar IntersectionExampleScenario.node[30].nic.mac1609_4 	TimesIntoBackoff 	0
scalar IntersectionExampleScenario.node[30].nic.mac1609_4 	SlotsBackoff 	0
scalar IntersectionExampleScenario.node[30].nic.mac1609_4 	NumInternalContention 	0
scalar IntersectionExampleScenario.node[30].nic.mac1609_4 	totalBusyTime 	0
scalar IntersectionExampleScenario.node[30].veinsmobility 	startTime 	64.25
scalar IntersectionExampleScenario.node[30].veinsmobility 	totalTime 	55
scalar IntersectionExampleScenario.node[30].veinsmobility 	stopTime 	119.5
scalar IntersectionExampleScenario.node[30].veinsmobility 	minSpeed 	0
scalar IntersectionExampleScenario.node[30].veinsmobility 	maxSpeed 	16
scalar IntersectionExampleScenario.node[30].veinsmobility 	totalDistance 	570.12775710421
scalar IntersectionExampleScenario.node[30].veinsmobility 	totalCO2Emission 	155.01270998741
scalar IntersectionExampleScenario.node[35].appl 	VehicleRemoved 	0
scalar IntersectionExampleScenario.node[35].appl 	ArrivedAtDest 	1
scalar IntersectionExampleScenario.node[35].appl 	IntersectionEnterTime 	79.25
scalar IntersectionExampleScenario.node[35].appl 	IntersectionExitTime 	105.35775991576
scalar IntersectionExampleScenario.node[35].appl 	NumberOfCollisions 	0
scalar IntersectionExampleScenario.node[35].nic.phy80211p 	busyTime 	0
scalar IntersectionExampleScenario.node[35].nic.mac1609_4 	ReceivedUnicastPackets 	0
scalar IntersectionExampleScenario.node[35].nic.mac1609_4 	ReceivedBroadcasts 	0
scalar IntersectionExampleScenario.node[35].nic.mac1609_4 	SentPackets 	0
scalar IntersectionExampleScenario.node[35].nic.mac1609_4 	SNIRLostPackets 	0
scalar IntersectionExampleScenario.node[35].nic.mac1609_4 	RXTXLostPackets 	0
scalar IntersectionExampleScenario.node[35].nic.mac1609_4 	TotalLostPackets 	0
scalar IntersectionExampleScenario.node[35].nic.mac1609_4 	DroppedPacketsInMac 	0
scalar IntersectionExampleScenario.node[35].nic.mac1609_4 	TooLittleTime 	0
scalar IntersectionExampleScenario.node[35].nic.mac1609_4 	TimesIntoBackoff 	0
scalar IntersectionExampleScenario.node[35].nic.mac1609_4 	SlotsBackoff 	0
scalar IntersectionExampleScenario.node[35].nic.mac1609_4 	NumInternalContention 	0
scalar IntersectionExampleScenario.node[35].nic.mac1609_4 	totalBusyTime 	0
scalar IntersectionExampleScenario.node[35].veinsmobility 	startTime 	79.25
scalar IntersectionExampleScenario.node[35].veinsmobility 	totalTime 	42.25
scalar IntersectionExampleScenario.node[35].veinsmobility 	stopTime 	121.75
scalar IntersectionExampleScenario.node[35].veinsmobility 	minSpeed 	5.6500000953674
scalar IntersectionExampleScenario.node[35].veinsmobility 	maxSpeed 	15.64999961853
scalar IntersectionExampleScenario.node[35].veinsmobility 	totalDistance 	554.98236083984
scalar IntersectionExampleScenario.node[35].veinsmobility 	totalCO2Emission 	135.0562161441
scalar IntersectionExampleScenario.node[37].appl 	VehicleRemoved 	0
scalar IntersectionExampleScenario.node[37].appl 	ArrivedAtDest 	1
scalar IntersectionExampleScenario.node[37].appl 	IntersectionEnterTime 	84.5
scalar IntersectionExampleScenario.node[37].appl 	IntersectionExitTime 	108.35042654449
scalar IntersectionExampleScenario.node[37].appl 	NumberOfCollisions 	0
scalar IntersectionExampleScenario.node[37].nic.phy80211p 	busyTime 	0
scalar IntersectionExampleScenario.node[37].nic.mac1609_4 	ReceivedUnicastPackets 	0
scalar IntersectionExampleScenario.node[37].nic.mac1609_4 	ReceivedBroadcasts 	0
scalar IntersectionExampleScenario.node[37].nic.mac1609_4 	SentPackets 	0
scalar IntersectionExampleScenario.node[37].nic.mac1609_4 	SNIRLostPackets 	0
scalar IntersectionExampleScenario.node[37].nic.mac1609_4 	RXTXLostPackets 	0
scalar IntersectionExampleScenario.node[37].nic.mac1609_4 	TotalLostPackets 	0
scalar IntersectionExampleScenario.node[37].nic.mac1609_4 	DroppedPacketsInMac 	0
scalar IntersectionExampleScenario.node[37].nic.mac1609_4 	TooLittleTime 	0
scalar IntersectionExampleScenario.node[37].nic.mac1609_4 	TimesIntoBackoff 	0
scalar IntersectionExampleScenario.node[37].nic.mac1609_4 	SlotsBackoff 	0
scalar IntersectionExampleScenario.node[37].nic.mac1609_4 	NumInternalContention 	0
scalar IntersectionExampleScenario.node[37].nic.mac1609_4 	totalBusyTime 	0
scalar IntersectionExampleScenario.node[37].veinsmobility 	startTime 	84.5
scalar IntersectionExampleScenario.node[37].veinsmobility 	totalTime 	40.5
scalar IntersectionExampleScenario.node[37].veinsmobility 	stopTime 	125.25
scalar IntersectionExampleScenario.node[37].veinsmobility 	minSpeed 	5.6500000953674
scalar IntersectionExampleScenario.node[37].veinsmobility 	maxSpeed 	15.375
scalar IntersectionExampleScenario.node[37].veinsmobility 	totalDistance 	551.99964241626
scalar IntersectionExampleScenario.node[37].veinsmobility 	totalCO2Emission 	124.27138674848
scalar IntersectionExampleScenario.node[32].appl 	VehicleRemoved 	0
scalar IntersectionExampleScenario.node[32].appl 	ArrivedAtDest 	1
scalar IntersectionExampleScenario.node[32].appl 	IntersectionEnterTime 	69.5
scalar IntersectionExampleScenario.node[32].appl 	IntersectionExitTime 	110.30174869942
scalar IntersectionExampleScenario.node[32].appl 	NumberOfCollisions 	0
scalar IntersectionExampleScenario.node[32].nic.phy80211p 	busyTime 	0
scalar IntersectionExampleScenario.node[32].nic.mac1609_4 	ReceivedUnicastPackets 	0
scalar IntersectionExampleScenario.node[32].nic.mac1609_4 	ReceivedBroadcasts 	0
scalar IntersectionExampleScenario.node[32].nic.mac1609_4 	SentPackets 	0
scalar IntersectionExampleScenario.node[32].nic.mac1609_4 	SNIRLostPackets 	0
scalar IntersectionExampleScenario.node[32].nic.mac1609_4 	RXTXLostPackets 	0
scalar IntersectionExampleScenario.node[32].nic.mac1609_4 	TotalLostPackets 	0
scalar IntersectionExampleScenario.node[32].nic.mac1609_4 	DroppedPacketsInMac 	0
scalar IntersectionExampleScenario.node[32].nic.mac1609_4 	TooLittleTime 	0
scalar IntersectionExampleScenario.node[32].nic.mac1609_4 	TimesIntoBackoff 	0
scalar IntersectionExampleScenario.node[32].nic.mac1609_4 	SlotsBackoff 	0
scalar IntersectionExampleScenario.node[32].nic.mac1609_4 	NumInternalContention 	0
scalar IntersectionExampleScenario.node[32].nic.mac1609_4 	totalBusyTime 	0
scalar IntersectionExampleScenario.node[32].veinsmobility 	startTime 	69.5
scalar IntersectionExampleScenario.node[32].veinsmobility 	totalTime 	57
scalar IntersectionExampleScenario.node[32].veinsmobility 	stopTime 	126.75
scalar IntersectionExampleScenario.node[32].veinsmobility 	minSpeed 	0
scalar IntersectionExampleScenario.node[32].veinsmobility 	maxSpeed 	15.375
scalar IntersectionExampleScenario.node[32].veinsmobility 	totalDistance 	553.37906646729
scalar IntersectionExampleScenario.node[32].veinsmobility 	totalCO2Emission 	147.21704380396
scalar IntersectionExampleScenario.node[34].appl 	VehicleRemoved 	0
scalar IntersectionExampleScenario.node[34].appl 	ArrivedAtDest 	1
scalar IntersectionExampleScenario.node[34].appl 	IntersectionEnterTime 	73
scalar IntersectionExampleScenario.node[34].appl 	IntersectionExitTime 	112.57286083186
scalar IntersectionExampleScenario.node[34].appl 	NumberOfCollisions 	0
scalar IntersectionExampleScenario.node[34].nic.phy80211p 	busyTime 	0
scalar IntersectionExampleScenario.node[34].nic.mac1609_4 	ReceivedUnicastPackets 	0
scalar IntersectionExampleScenario.node[34].nic.mac1609_4 	ReceivedBroadcasts 	0
scalar IntersectionExampleScenario.node[34].nic.mac1609_4 	SentPackets 	0
scalar IntersectionExampleScenario.node[34].nic.mac1609_4 	SNIRLostPackets 	0
scalar IntersectionExampleScenario.node[34].nic.mac1609_4 	RXTXLostPackets 	0
scalar IntersectionExampleScenario.node[34].nic.mac1609_4 	TotalLostPackets 	0
scalar IntersectionExampleScenario.node[34].nic.mac1609_4 	DroppedPacketsInMac 	0
scalar IntersectionExampleScenario.node[34].nic.mac1609_4 	TooLittleTime 	0
scalar IntersectionExampleScenario.node[34].nic.mac1609_4 	TimesIntoBackoff 	0
scalar IntersectionExampleScenario.node[34].nic.mac1609_4 	SlotsBackoff 	0
scalar IntersectionExampleScenario.node[34].nic.mac1609_4 	NumInternalContention 	0
scalar IntersectionExampleScenario.node[34].nic.mac1609_4 	totalBusyTime 	0
scalar IntersectionExampleScenario.node[34].veinsmobility 	startTime 	73
scalar IntersectionExampleScenario.node[34].veinsmobility 	totalTime 	56
scalar IntersectionExampleScenario.node[34].veinsmobility 	stopTime 	129.25
scalar IntersectionExampleScenario.node[34].veinsmobility 	minSpeed 	0
scalar IntersectionExampleScenario.node[34].veinsmobility 	maxSpeed 	15.02499961853
scalar IntersectionExampleScenario.node[34].veinsmobility 	totalDistance 	561.38732147217
scalar IntersectionExampleScenario.node[34].veinsmobility 	totalCO2Emission 	142.80034108613
scalar IntersectionExampleScenario.node[39].appl 	VehicleRemoved 	0
scalar IntersectionExampleScenario.node[39].appl 	ArrivedAtDest 	1
scalar IntersectionExampleScenario.node[39].appl 	IntersectionEnterTime 	88
scalar IntersectionExampleScenario.node[39].appl 	IntersectionExitTime 	114.56153721313
scalar IntersectionExampleScenario.node[39].appl 	NumberOfCollisions 	0
scalar IntersectionExampleScenario.node[39].nic.phy80211p 	busyTime 	0
scalar IntersectionExampleScenario.node[39].nic.mac1609_4 	ReceivedUnicastPackets 	0
scalar IntersectionExampleScenario.node[39].nic.mac1609_4 	ReceivedBroadcasts 	0
scalar IntersectionExampleScenario.node[39].nic.mac1609_4 	SentPackets 	0
scalar IntersectionExampleScenario.node[39].nic.mac1609_4 	SNIRLostPackets 	0
scalar IntersectionExampleScenario.node[39].nic.mac1609_4 	RXTXLostPackets 	0
scalar IntersectionExampleScenario.node[39].nic.mac1609_4 	TotalLostPackets 	0
scalar IntersectionExampleScenario.node[39].nic.mac1609_4 	DroppedPacketsInMac 	0
scalar IntersectionExampleScenario.node[39].nic.mac1609_4 	TooLittleTime 	0
scalar IntersectionExampleScenario.node[39].nic.mac1609_4 	TimesIntoBackoff 	0
scalar IntersectionExampleScenario.node[39].nic.mac1609_4 	SlotsBackoff 	0
scalar IntersectionExampleScenario.node[39].nic.mac1609_4 	NumInternalContention 	0
scalar IntersectionExampleScenario.node[39].nic.mac1609_4 	totalBusyTime 	0
scalar IntersectionExampleScenario.node[39].veinsmobility 	startTime 	88
scalar IntersectionExampleScenario.node[39].veinsmobility 	totalTime 	42.75
scalar IntersectionExampleScenario.node[39].veinsmobility 	stopTime 	131
scalar IntersectionExampleScenario.node[39].veinsmobility 	minSpeed 	5.6500000953674
scalar IntersectionExampleScenario.node[39].veinsmobility 	maxSpeed 	16.27499961853
scalar IntersectionExampleScenario.node[39].veinsmobility 	totalDistance 	542.52163711489
scalar IntersectionExampleScenario.node[39].veinsmobility 	totalCO2Emission 	140.26997899651
scalar IntersectionExampleScenario.node[41].appl 	VehicleRemoved 	0
scalar IntersectionExampleScenario.node[41].appl 	ArrivedAtDest 	1
scalar IntersectionExampleScenario.node[41].appl 	IntersectionEnterTime 	92
scalar IntersectionExampleScenario.node[41].appl 	IntersectionExitTime 	116.53192437635
scalar IntersectionExampleScenario.node[41].appl 	NumberOfCollisions 	0
scalar IntersectionExampleScenario.node[41].nic.phy80211p 	busyTime 	0
scalar IntersectionExampleScenario.node[41].nic.mac1609_4 	ReceivedUnicastPackets 	0
scalar IntersectionExampleScenario.node[41].nic.mac1609_4 	ReceivedBroadcasts 	0
scalar IntersectionExampleScenario.node[41].nic.mac1609_4 	SentPackets 	0
scalar IntersectionExampleScenario.node[41].nic.mac1609_4 	SNIRLostPackets 	0
scalar IntersectionExampleScenario.node[41].nic.mac1609_4 	RXTXLostPackets 	0
scalar IntersectionExampleScenario.node[41].nic.mac1609_4 	TotalLostPackets 	0
scalar IntersectionExampleScenario.node[41].nic.mac1609_4 	DroppedPacketsInMac 	0
scalar IntersectionExampleScenario.node[41].nic.mac1609_4 	TooLittleTime 	0
scalar IntersectionExampleScenario.node[41].nic.mac1609_4 	TimesIntoBackoff 	0
scalar IntersectionExampleScenario.node[41].nic.mac1609_4 	SlotsBackoff 	0
scalar IntersectionExampleScenario.node[41].nic.mac1609_4 	NumInternalContention 	0
scalar IntersectionExampleScenario.node[41].nic.mac1609_4 	totalBusyTime 	0
scalar IntersectionExampleScenario.node[41].veinsmobility 	startTime 	92
scalar IntersectionExampleScenario.node[41].veinsmobility 	totalTime 	40.5
scalar IntersectionExampleScenario.node[41].veinsmobility 	stopTime 	132.75
scalar IntersectionExampleScenario.node[41].veinsmobility 	minSpeed 	5.6500000953674
scalar IntersectionExampleScenario.node[41].veinsmobility 	maxSpeed 	15.64999961853
scalar IntersectionExampleScenario.node[41].veinsmobility 	totalDistance 	559.81649780273
scalar IntersectionExampleScenario.node[41].veinsmobility 	totalCO2Emission 	127.24629974221
scalar IntersectionExampleScenario.node[36].appl 	VehicleRemoved 	0
scalar IntersectionExampleScenario.node[36].appl 	ArrivedAtDest 	1
scalar IntersectionExampleScenario.node[36].appl 	IntersectionEnterTime 	80.25
scalar IntersectionExampleScenario.node[36].appl 	IntersectionExitTime 	119.29075926074
scalar IntersectionExampleScenario.node[36].appl 	NumberOfCollisions 	0
scalar IntersectionExampleScenario.node[36].nic.phy80211p 	busyTime 	0
scalar IntersectionExampleScenario.node[36].nic.mac1609_4 	ReceivedUnicastPackets 	0
scalar IntersectionExampleScenario.node[36].nic.mac1609_4 	ReceivedBroadcasts 	0
scalar IntersectionExampleScenario.node[36].nic.mac1609_4 	SentPackets 	0
scalar IntersectionExampleScenario.node[36].nic.mac1609_4 	SNIRLostPackets 	0
scalar IntersectionExampleScenario.node[36].nic.mac1609_4 	RXTXLostPackets 	0
scalar IntersectionExampleScenario.node[36].nic.mac1609_4 	TotalLostPackets 	0
scalar IntersectionExampleScenario.node[36].nic.mac1609_4 	DroppedPacketsInMac 	0
scalar IntersectionExampleScenario.node[36].nic.mac1609_4 	TooLittleTime 	0
scalar IntersectionExampleScenario.node[36].nic.mac1609_4 	TimesIntoBackoff 	0
scalar IntersectionExampleScenario.node[36].nic.mac1609_4 	SlotsBackoff 	0
[...]
scalar IntersectionExampleScenario.node[756].veinsmobility 	minSpeed 	5.6500000953674
scalar IntersectionExampleScenario.node[756].veinsmobility 	maxSpeed 	15.02499961853
scalar IntersectionExampleScenario.node[756].veinsmobility 	totalDistance 	232.36553955078
scalar IntersectionExampleScenario.node[756].veinsmobility 	totalCO2Emission 	56.717610320995
scalar IntersectionExampleScenario.node[757].appl 	VehicleRemoved 	0
scalar IntersectionExampleScenario.node[757].appl 	ArrivedAtDest 	0
scalar IntersectionExampleScenario.node[757].appl 	IntersectionEnterTime 	1783.75
scalar IntersectionExampleScenario.node[757].appl 	IntersectionExitTime 	-1
scalar IntersectionExampleScenario.node[757].appl 	NumberOfCollisions 	0
scalar IntersectionExampleScenario.node[757].nic.phy80211p 	busyTime 	0
scalar IntersectionExampleScenario.node[757].nic.mac1609_4 	ReceivedUnicastPackets 	0
scalar IntersectionExampleScenario.node[757].nic.mac1609_4 	ReceivedBroadcasts 	0
scalar IntersectionExampleScenario.node[757].nic.mac1609_4 	SentPackets 	0
scalar IntersectionExampleScenario.node[757].nic.mac1609_4 	SNIRLostPackets 	0
scalar IntersectionExampleScenario.node[757].nic.mac1609_4 	RXTXLostPackets 	0
scalar IntersectionExampleScenario.node[757].nic.mac1609_4 	TotalLostPackets 	0
scalar IntersectionExampleScenario.node[757].nic.mac1609_4 	DroppedPacketsInMac 	0
scalar IntersectionExampleScenario.node[757].nic.mac1609_4 	TooLittleTime 	0
scalar IntersectionExampleScenario.node[757].nic.mac1609_4 	TimesIntoBackoff 	0
scalar IntersectionExampleScenario.node[757].nic.mac1609_4 	SlotsBackoff 	0
scalar IntersectionExampleScenario.node[757].nic.mac1609_4 	NumInternalContention 	0
scalar IntersectionExampleScenario.node[757].nic.mac1609_4 	totalBusyTime 	0
scalar IntersectionExampleScenario.node[757].veinsmobility 	startTime 	1783.75
scalar IntersectionExampleScenario.node[757].veinsmobility 	totalTime 	16.25
scalar IntersectionExampleScenario.node[757].veinsmobility 	stopTime 	1800
scalar IntersectionExampleScenario.node[757].veinsmobility 	minSpeed 	5.6500000953674
scalar IntersectionExampleScenario.node[757].veinsmobility 	maxSpeed 	15.64999961853
scalar IntersectionExampleScenario.node[757].veinsmobility 	totalDistance 	222.37229156494
scalar IntersectionExampleScenario.node[757].veinsmobility 	totalCO2Emission 	56.084893325198
scalar IntersectionExampleScenario.node[758].appl 	VehicleRemoved 	0
scalar IntersectionExampleScenario.node[758].appl 	ArrivedAtDest 	0
scalar IntersectionExampleScenario.node[758].appl 	IntersectionEnterTime 	1788
scalar IntersectionExampleScenario.node[758].appl 	IntersectionExitTime 	-1
scalar IntersectionExampleScenario.node[758].appl 	NumberOfCollisions 	0
scalar IntersectionExampleScenario.node[758].nic.phy80211p 	busyTime 	0
scalar IntersectionExampleScenario.node[758].nic.mac1609_4 	ReceivedUnicastPackets 	0
scalar IntersectionExampleScenario.node[758].nic.mac1609_4 	ReceivedBroadcasts 	0
scalar IntersectionExampleScenario.node[758].nic.mac1609_4 	SentPackets 	0
scalar IntersectionExampleScenario.node[758].nic.mac1609_4 	SNIRLostPackets 	0
scalar IntersectionExampleScenario.node[758].nic.mac1609_4 	RXTXLostPackets 	0
scalar IntersectionExampleScenario.node[758].nic.mac1609_4 	TotalLostPackets 	0
scalar IntersectionExampleScenario.node[758].nic.mac1609_4 	DroppedPacketsInMac 	0
scalar IntersectionExampleScenario.node[758].nic.mac1609_4 	TooLittleTime 	0
scalar IntersectionExampleScenario.node[758].nic.mac1609_4 	TimesIntoBackoff 	0
scalar IntersectionExampleScenario.node[758].nic.mac1609_4 	SlotsBackoff 	0
scalar IntersectionExampleScenario.node[758].nic.mac1609_4 	NumInternalContention 	0
scalar IntersectionExampleScenario.node[758].nic.mac1609_4 	totalBusyTime 	0
scalar IntersectionExampleScenario.node[758].veinsmobility 	startTime 	1788
scalar IntersectionExampleScenario.node[758].veinsmobility 	totalTime 	12
scalar IntersectionExampleScenario.node[758].veinsmobility 	stopTime 	1800
scalar IntersectionExampleScenario.node[758].veinsmobility 	minSpeed 	5.6500000953674
scalar IntersectionExampleScenario.node[758].veinsmobility 	maxSpeed 	15.02499961853
scalar IntersectionExampleScenario.node[758].veinsmobility 	totalDistance 	159.67733001709
scalar IntersectionExampleScenario.node[758].veinsmobility 	totalCO2Emission 	47.453328595829
scalar IntersectionExampleScenario.node[759].appl 	VehicleRemoved 	0
scalar IntersectionExampleScenario.node[759].appl 	ArrivedAtDest 	0
scalar IntersectionExampleScenario.node[759].appl 	IntersectionEnterTime 	1790
scalar IntersectionExampleScenario.node[759].appl 	IntersectionExitTime 	-1
scalar IntersectionExampleScenario.node[759].appl 	NumberOfCollisions 	0
scalar IntersectionExampleScenario.node[759].nic.phy80211p 	busyTime 	0
scalar IntersectionExampleScenario.node[759].nic.mac1609_4 	ReceivedUnicastPackets 	0
scalar IntersectionExampleScenario.node[759].nic.mac1609_4 	ReceivedBroadcasts 	0
scalar IntersectionExampleScenario.node[759].nic.mac1609_4 	SentPackets 	0
scalar IntersectionExampleScenario.node[759].nic.mac1609_4 	SNIRLostPackets 	0
scalar IntersectionExampleScenario.node[759].nic.mac1609_4 	RXTXLostPackets 	0
scalar IntersectionExampleScenario.node[759].nic.mac1609_4 	TotalLostPackets 	0
scalar IntersectionExampleScenario.node[759].nic.mac1609_4 	DroppedPacketsInMac 	0
scalar IntersectionExampleScenario.node[759].nic.mac1609_4 	TooLittleTime 	0
scalar IntersectionExampleScenario.node[759].nic.mac1609_4 	TimesIntoBackoff 	0
scalar IntersectionExampleScenario.node[759].nic.mac1609_4 	SlotsBackoff 	0
scalar IntersectionExampleScenario.node[759].nic.mac1609_4 	NumInternalContention 	0
scalar IntersectionExampleScenario.node[759].nic.mac1609_4 	totalBusyTime 	0
scalar IntersectionExampleScenario.node[759].veinsmobility 	startTime 	1790
scalar IntersectionExampleScenario.node[759].veinsmobility 	totalTime 	10
scalar IntersectionExampleScenario.node[759].veinsmobility 	stopTime 	1800
scalar IntersectionExampleScenario.node[759].veinsmobility 	minSpeed 	5.6500000953674
scalar IntersectionExampleScenario.node[759].veinsmobility 	maxSpeed 	15.64999961853
scalar IntersectionExampleScenario.node[759].veinsmobility 	totalDistance 	132.07995605469
scalar IntersectionExampleScenario.node[759].veinsmobility 	totalCO2Emission 	44.765829239095
scalar IntersectionExampleScenario.node[760].appl 	VehicleRemoved 	0
scalar IntersectionExampleScenario.node[760].appl 	ArrivedAtDest 	0
scalar IntersectionExampleScenario.node[760].appl 	IntersectionEnterTime 	1790.75
scalar IntersectionExampleScenario.node[760].appl 	IntersectionExitTime 	-1
scalar IntersectionExampleScenario.node[760].appl 	NumberOfCollisions 	0
scalar IntersectionExampleScenario.node[760].nic.phy80211p 	busyTime 	0
scalar IntersectionExampleScenario.node[760].nic.mac1609_4 	ReceivedUnicastPackets 	0
scalar IntersectionExampleScenario.node[760].nic.mac1609_4 	ReceivedBroadcasts 	0
scalar IntersectionExampleScenario.node[760].nic.mac1609_4 	SentPackets 	0
scalar IntersectionExampleScenario.node[760].nic.mac1609_4 	SNIRLostPackets 	0
scalar IntersectionExampleScenario.node[760].nic.mac1609_4 	RXTXLostPackets 	0
scalar IntersectionExampleScenario.node[760].nic.mac1609_4 	TotalLostPackets 	0
scalar IntersectionExampleScenario.node[760].nic.mac1609_4 	DroppedPacketsInMac 	0
scalar IntersectionExampleScenario.node[760].nic.mac1609_4 	TooLittleTime 	0
scalar IntersectionExampleScenario.node[760].nic.mac1609_4 	TimesIntoBackoff 	0
scalar IntersectionExampleScenario.node[760].nic.mac1609_4 	SlotsBackoff 	0
scalar IntersectionExampleScenario.node[760].nic.mac1609_4 	NumInternalContention 	0
scalar IntersectionExampleScenario.node[760].nic.mac1609_4 	totalBusyTime 	0
scalar IntersectionExampleScenario.node[760].veinsmobility 	startTime 	1790.75
scalar IntersectionExampleScenario.node[760].veinsmobility 	totalTime 	9.25
scalar IntersectionExampleScenario.node[760].veinsmobility 	stopTime 	1800
scalar IntersectionExampleScenario.node[760].veinsmobility 	minSpeed 	5.6500000953674
scalar IntersectionExampleScenario.node[760].veinsmobility 	maxSpeed 	15.64999961853
scalar IntersectionExampleScenario.node[760].veinsmobility 	totalDistance 	120.97750091553
scalar IntersectionExampleScenario.node[760].veinsmobility 	totalCO2Emission 	43.448337290442
scalar IntersectionExampleScenario.node[761].appl 	VehicleRemoved 	0
scalar IntersectionExampleScenario.node[761].appl 	ArrivedAtDest 	0
scalar IntersectionExampleScenario.node[761].appl 	IntersectionEnterTime 	1792.5
scalar IntersectionExampleScenario.node[761].appl 	IntersectionExitTime 	-1
scalar IntersectionExampleScenario.node[761].appl 	NumberOfCollisions 	0
scalar IntersectionExampleScenario.node[761].nic.phy80211p 	busyTime 	0
scalar IntersectionExampleScenario.node[761].nic.mac1609_4 	ReceivedUnicastPackets 	0
scalar IntersectionExampleScenario.node[761].nic.mac1609_4 	ReceivedBroadcasts 	0
scalar IntersectionExampleScenario.node[761].nic.mac1609_4 	SentPackets 	0
scalar IntersectionExampleScenario.node[761].nic.mac1609_4 	SNIRLostPackets 	0
scalar IntersectionExampleScenario.node[761].nic.mac1609_4 	RXTXLostPackets 	0
scalar IntersectionExampleScenario.node[761].nic.mac1609_4 	TotalLostPackets 	0
scalar IntersectionExampleScenario.node[761].nic.mac1609_4 	DroppedPacketsInMac 	0
scalar IntersectionExampleScenario.node[761].nic.mac1609_4 	TooLittleTime 	0
scalar IntersectionExampleScenario.node[761].nic.mac1609_4 	TimesIntoBackoff 	0
scalar IntersectionExampleScenario.node[761].nic.mac1609_4 	SlotsBackoff 	0
scalar IntersectionExampleScenario.node[761].nic.mac1609_4 	NumInternalContention 	0
scalar IntersectionExampleScenario.node[761].nic.mac1609_4 	totalBusyTime 	0
scalar IntersectionExampleScenario.node[761].veinsmobility 	startTime 	1792.5
scalar IntersectionExampleScenario.node[761].veinsmobility 	totalTime 	7.5
scalar IntersectionExampleScenario.node[761].veinsmobility 	stopTime 	1800
scalar IntersectionExampleScenario.node[761].veinsmobility 	minSpeed 	5.6500000953674
scalar IntersectionExampleScenario.node[761].veinsmobility 	maxSpeed 	15.64999961853
scalar IntersectionExampleScenario.node[761].veinsmobility 	totalDistance 	94.611389160156
scalar IntersectionExampleScenario.node[761].veinsmobility 	totalCO2Emission 	40.476645726674
scalar IntersectionExampleScenario.node[762].appl 	VehicleRemoved 	0
scalar IntersectionExampleScenario.node[762].appl 	ArrivedAtDest 	0
scalar IntersectionExampleScenario.node[762].appl 	IntersectionEnterTime 	1793.25
scalar IntersectionExampleScenario.node[762].appl 	IntersectionExitTime 	-1
scalar IntersectionExampleScenario.node[762].appl 	NumberOfCollisions 	0
scalar IntersectionExampleScenario.node[762].nic.phy80211p 	busyTime 	0
scalar IntersectionExampleScenario.node[762].nic.mac1609_4 	ReceivedUnicastPackets 	0
scalar IntersectionExampleScenario.node[762].nic.mac1609_4 	ReceivedBroadcasts 	0
scalar IntersectionExampleScenario.node[762].nic.mac1609_4 	SentPackets 	0
scalar IntersectionExampleScenario.node[762].nic.mac1609_4 	SNIRLostPackets 	0
scalar IntersectionExampleScenario.node[762].nic.mac1609_4 	RXTXLostPackets 	0
scalar IntersectionExampleScenario.node[762].nic.mac1609_4 	TotalLostPackets 	0
scalar IntersectionExampleScenario.node[762].nic.mac1609_4 	DroppedPacketsInMac 	0
scalar IntersectionExampleScenario.node[762].nic.mac1609_4 	TooLittleTime 	0
scalar IntersectionExampleScenario.node[762].nic.mac1609_4 	TimesIntoBackoff 	0
scalar IntersectionExampleScenario.node[762].nic.mac1609_4 	SlotsBackoff 	0
scalar IntersectionExampleScenario.node[762].nic.mac1609_4 	NumInternalContention 	0
scalar IntersectionExampleScenario.node[762].nic.mac1609_4 	totalBusyTime 	0
scalar IntersectionExampleScenario.node[762].veinsmobility 	startTime 	1793.25
scalar IntersectionExampleScenario.node[762].veinsmobility 	totalTime 	6.75
scalar IntersectionExampleScenario.node[762].veinsmobility 	stopTime 	1800
scalar IntersectionExampleScenario.node[762].veinsmobility 	minSpeed 	5.6500000953674
scalar IntersectionExampleScenario.node[762].veinsmobility 	maxSpeed 	15.817966461182
scalar IntersectionExampleScenario.node[762].veinsmobility 	totalDistance 	82.542701721191
scalar IntersectionExampleScenario.node[762].veinsmobility 	totalCO2Emission 	39.647299606218
scalar IntersectionExampleScenario.node[763].appl 	VehicleRemoved 	0
scalar IntersectionExampleScenario.node[763].appl 	ArrivedAtDest 	0
scalar IntersectionExampleScenario.node[763].appl 	IntersectionEnterTime 	1794
scalar IntersectionExampleScenario.node[763].appl 	IntersectionExitTime 	-1
scalar IntersectionExampleScenario.node[763].appl 	NumberOfCollisions 	0
scalar IntersectionExampleScenario.node[763].nic.phy80211p 	busyTime 	0
scalar IntersectionExampleScenario.node[763].nic.mac1609_4 	ReceivedUnicastPackets 	0
scalar IntersectionExampleScenario.node[763].nic.mac1609_4 	ReceivedBroadcasts 	0
scalar IntersectionExampleScenario.node[763].nic.mac1609_4 	SentPackets 	0
scalar IntersectionExampleScenario.node[763].nic.mac1609_4 	SNIRLostPackets 	0
scalar IntersectionExampleScenario.node[763].nic.mac1609_4 	RXTXLostPackets 	0
scalar IntersectionExampleScenario.node[763].nic.mac1609_4 	TotalLostPackets 	0
scalar IntersectionExampleScenario.node[763].nic.mac1609_4 	DroppedPacketsInMac 	0
scalar IntersectionExampleScenario.node[763].nic.mac1609_4 	TooLittleTime 	0
scalar IntersectionExampleScenario.node[763].nic.mac1609_4 	TimesIntoBackoff 	0
scalar IntersectionExampleScenario.node[763].nic.mac1609_4 	SlotsBackoff 	0
scalar IntersectionExampleScenario.node[763].nic.mac1609_4 	NumInternalContention 	0
scalar IntersectionExampleScenario.node[763].nic.mac1609_4 	totalBusyTime 	0
scalar IntersectionExampleScenario.node[763].veinsmobility 	startTime 	1794
scalar IntersectionExampleScenario.node[763].veinsmobility 	totalTime 	6
scalar IntersectionExampleScenario.node[763].veinsmobility 	stopTime 	1800
scalar IntersectionExampleScenario.node[763].veinsmobility 	minSpeed 	5.6500000953674
scalar IntersectionExampleScenario.node[763].veinsmobility 	maxSpeed 	15.64999961853
scalar IntersectionExampleScenario.node[763].veinsmobility 	totalDistance 	70.990539550781
scalar IntersectionExampleScenario.node[763].veinsmobility 	totalCO2Emission 	36.338085273806
scalar IntersectionExampleScenario.node[764].appl 	VehicleRemoved 	0
scalar IntersectionExampleScenario.node[764].appl 	ArrivedAtDest 	0
scalar IntersectionExampleScenario.node[764].appl 	IntersectionEnterTime 	1795.75
scalar IntersectionExampleScenario.node[764].appl 	IntersectionExitTime 	-1
scalar IntersectionExampleScenario.node[764].appl 	NumberOfCollisions 	0
scalar IntersectionExampleScenario.node[764].nic.phy80211p 	busyTime 	0
scalar IntersectionExampleScenario.node[764].nic.mac1609_4 	ReceivedUnicastPackets 	0
scalar IntersectionExampleScenario.node[764].nic.mac1609_4 	ReceivedBroadcasts 	0
scalar IntersectionExampleScenario.node[764].nic.mac1609_4 	SentPackets 	0
scalar IntersectionExampleScenario.node[764].nic.mac1609_4 	SNIRLostPackets 	0
scalar IntersectionExampleScenario.node[764].nic.mac1609_4 	RXTXLostPackets 	0
scalar IntersectionExampleScenario.node[764].nic.mac1609_4 	TotalLostPackets 	0
scalar IntersectionExampleScenario.node[764].nic.mac1609_4 	DroppedPacketsInMac 	0
scalar IntersectionExampleScenario.node[764].nic.mac1609_4 	TooLittleTime 	0
scalar IntersectionExampleScenario.node[764].nic.mac1609_4 	TimesIntoBackoff 	0
scalar IntersectionExampleScenario.node[764].nic.mac1609_4 	SlotsBackoff 	0
scalar IntersectionExampleScenario.node[764].nic.mac1609_4 	NumInternalContention 	0
scalar IntersectionExampleScenario.node[764].nic.mac1609_4 	totalBusyTime 	0
scalar IntersectionExampleScenario.node[764].veinsmobility 	startTime 	1795.75
scalar IntersectionExampleScenario.node[764].veinsmobility 	totalTime 	4.25
scalar IntersectionExampleScenario.node[764].veinsmobility 	stopTime 	1800
scalar IntersectionExampleScenario.node[764].veinsmobility 	minSpeed 	5.6500000953674
scalar IntersectionExampleScenario.node[764].veinsmobility 	maxSpeed 	15.02499961853
scalar IntersectionExampleScenario.node[764].veinsmobility 	totalDistance 	43.853523254395
scalar IntersectionExampleScenario.node[764].veinsmobility 	totalCO2Emission 	31.108630602743
scalar IntersectionExampleScenario.node[765].appl 	VehicleRemoved 	0
scalar IntersectionExampleScenario.node[765].appl 	ArrivedAtDest 	0
scalar IntersectionExampleScenario.node[765].appl 	IntersectionEnterTime 	1797.5
scalar IntersectionExampleScenario.node[765].appl 	IntersectionExitTime 	-1
scalar IntersectionExampleScenario.node[765].appl 	NumberOfCollisions 	0
scalar IntersectionExampleScenario.node[765].nic.phy80211p 	busyTime 	0
scalar IntersectionExampleScenario.node[765].nic.mac1609_4 	ReceivedUnicastPackets 	0
scalar IntersectionExampleScenario.node[765].nic.mac1609_4 	ReceivedBroadcasts 	0
scalar IntersectionExampleScenario.node[765].nic.mac1609_4 	SentPackets 	0
scalar IntersectionExampleScenario.node[765].nic.mac1609_4 	SNIRLostPackets 	0
scalar IntersectionExampleScenario.node[765].nic.mac1609_4 	RXTXLostPackets 	0
scalar IntersectionExampleScenario.node[765].nic.mac1609_4 	TotalLostPackets 	0
scalar IntersectionExampleScenario.node[765].nic.mac1609_4 	DroppedPacketsInMac 	0
scalar IntersectionExampleScenario.node[765].nic.mac1609_4 	TooLittleTime 	0
scalar IntersectionExampleScenario.node[765].nic.mac1609_4 	TimesIntoBackoff 	0
scalar IntersectionExampleScenario.node[765].nic.mac1609_4 	SlotsBackoff 	0
scalar IntersectionExampleScenario.node[765].nic.mac1609_4 	NumInternalContention 	0
scalar IntersectionExampleScenario.node[765].nic.mac1609_4 	totalBusyTime 	0
scalar IntersectionExampleScenario.node[765].veinsmobility 	startTime 	1797.5
scalar IntersectionExampleScenario.node[765].veinsmobility 	totalTime 	2.5
scalar IntersectionExampleScenario.node[765].veinsmobility 	stopTime 	1800
scalar IntersectionExampleScenario.node[765].veinsmobility 	minSpeed 	5.6500000953674
scalar IntersectionExampleScenario.node[765].veinsmobility 	maxSpeed 	11.27499961853
scalar IntersectionExampleScenario.node[765].veinsmobility 	totalDistance 	20.375
scalar IntersectionExampleScenario.node[765].veinsmobility 	totalCO2Emission 	15.500237724595
scalar IntersectionExampleScenario.node[766].appl 	VehicleRemoved 	0
scalar IntersectionExampleScenario.node[766].appl 	ArrivedAtDest 	0
scalar IntersectionExampleScenario.node[766].appl 	IntersectionEnterTime 	1800
scalar IntersectionExampleScenario.node[766].appl 	IntersectionExitTime 	-1
scalar IntersectionExampleScenario.node[766].appl 	NumberOfCollisions 	0
scalar IntersectionExampleScenario.node[766].nic.phy80211p 	busyTime 	nan
scalar IntersectionExampleScenario.node[766].nic.mac1609_4 	ReceivedUnicastPackets 	0
scalar IntersectionExampleScenario.node[766].nic.mac1609_4 	ReceivedBroadcasts 	0
scalar IntersectionExampleScenario.node[766].nic.mac1609_4 	SentPackets 	0
scalar IntersectionExampleScenario.node[766].nic.mac1609_4 	SNIRLostPackets 	0
scalar IntersectionExampleScenario.node[766].nic.mac1609_4 	RXTXLostPackets 	0
scalar IntersectionExampleScenario.node[766].nic.mac1609_4 	TotalLostPackets 	0
scalar IntersectionExampleScenario.node[766].nic.mac1609_4 	DroppedPacketsInMac 	0
scalar IntersectionExampleScenario.node[766].nic.mac1609_4 	TooLittleTime 	0
scalar IntersectionExampleScenario.node[766].nic.mac1609_4 	TimesIntoBackoff 	0
scalar IntersectionExampleScenario.node[766].nic.mac1609_4 	SlotsBackoff 	0
scalar IntersectionExampleScenario.node[766].nic.mac1609_4 	NumInternalContention 	0
scalar IntersectionExampleScenario.node[766].nic.mac1609_4 	totalBusyTime 	0
scalar IntersectionExampleScenario.node[766].veinsmobility 	startTime 	1800
scalar IntersectionExampleScenario.node[766].veinsmobility 	totalTime 	0
scalar IntersectionExampleScenario.node[766].veinsmobility 	stopTime 	1800
scalar IntersectionExampleScenario.node[766].veinsmobility 	totalDistance 	0
scalar IntersectionExampleScenario.node[766].veinsmobility 	totalCO2Emission 	0
