file 28390763 1591463248                                        
version 2
run nodebug-20-20200606-13:03:21-21956
attr configname nodebug
attr datetime 20200606-13:03:21
attr experiment nodebug
attr inifile omnetpp.ini
attr iterationvars ""
attr iterationvars2 $repetition=20
attr measurement ""
attr network "\"org.car2x.veins.modules.application.ExtTraCIScenarioManagerLaunchd.IntersectionExampleScenario\""
attr processid 21956
attr repetition 20
attr replication #20
attr resultdir results
attr runnumber 20
attr seedset 20
param **.coreDebug false
param **.debug false
param *.**.nic.mac1609_4.bitrate 18Mbps
param *.**.nic.mac1609_4.txPower 20mW
param *.**.nic.mac1609_4.useServiceChannel false
param *.**.nic.phy80211p.analogueModels "xmldoc(\"config.xml\")"
param *.**.nic.phy80211p.decider "xmldoc(\"config.xml\")"
param *.**.nic.phy80211p.sensitivity -89dBm
param *.**.nic.phy80211p.thermalNoise -110dBm
param *.**.nic.phy80211p.usePropagationDelay true
param *.**.nic.phy80211p.useThermalNoise true
param *.annotations.draw false
param *.connectionManager.alpha 2.0
param *.connectionManager.carrierFrequency "5.890e9 Hz"
param *.connectionManager.pMax 20mW
param *.connectionManager.sat -89dBm
param *.connectionManager.sendDirect true
param *.manager.autoShutdown true
param *.manager.host "\"localhost\""
param *.manager.launchConfig "xmldoc(\"paramics.launchd.xml\")"
param *.manager.margin 25
param *.manager.moduleDisplayString "\"\""
param *.manager.moduleName "\"node\""
param *.manager.moduleType "\"org.car2x.veins.nodes.Car\""
param *.manager.port 9999
param *.manager.updateInterval 250ms
param *.node[*0].veinsmobility.accidentCount 0
param *.node[*0].veinsmobility.accidentDuration 30s
param *.node[*0].veinsmobility.accidentStart 75s
param *.node[*].appl.LiderSelectZoneRadio 55.0
param *.node[*].appl.ShareDataZoneRadio 110.0
param *.node[*].appl.TiempoSemaforo 30.0
param *.node[*].appl.beaconInterval 1s
param *.node[*].appl.beaconPriority 3
param *.node[*].appl.dataOnSch false
param *.node[*].appl.dataPriority 2
param *.node[*].appl.debug false
param *.node[*].appl.headerLength "256 bit"
param *.node[*].appl.maxOffset 0.005s
param *.node[*].appl.sendBeacons false
param *.node[*].appl.sendData true
param *.node[*].applType "\"Dummy\""
param *.node[*].mobilityType "\"TraCIMobility\""
param *.node[*].mobilityType.debug true
param *.node[*].veinsmobility.x 0
param *.node[*].veinsmobility.y 0
param *.node[*].veinsmobility.z 1.895
param *.node[*].veinsmobilityType "\"org.car2x.veins.modules.mobility.traci.TraCIMobility\""
param *.node[*].veinsmobilityType.debug true
param *.playgroundSizeX 8500m
param *.playgroundSizeY 8500m
param *.playgroundSizeZ 50m
param *.world.use2D false
param *.world.useTorus false

vector 50447  IntersectionExampleScenario.manager  vehiclesinsim  ETV
attr type  int
vector 50448  IntersectionExampleScenario.manager  realtime  ETV
attr type  int
attr unit  s
vector 50451  IntersectionExampleScenario.node[0].veinsmobility  posx  ETV
vector 50452  IntersectionExampleScenario.node[0].veinsmobility  posy  ETV
vector 50458  IntersectionExampleScenario.node[1].veinsmobility  posx  ETV
vector 50459  IntersectionExampleScenario.node[1].veinsmobility  posy  ETV
vector 50453  IntersectionExampleScenario.node[0].veinsmobility  speed  ETV
vector 50460  IntersectionExampleScenario.node[1].veinsmobility  speed  ETV
vector 50454  IntersectionExampleScenario.node[0].veinsmobility  acceleration  ETV
vector 50455  IntersectionExampleScenario.node[0].veinsmobility  co2emission  ETV
vector 50461  IntersectionExampleScenario.node[1].veinsmobility  acceleration  ETV
vector 50462  IntersectionExampleScenario.node[1].veinsmobility  co2emission  ETV
vector 50465  IntersectionExampleScenario.node[2].veinsmobility  posx  ETV
vector 50466  IntersectionExampleScenario.node[2].veinsmobility  posy  ETV
vector 50467  IntersectionExampleScenario.node[2].veinsmobility  speed  ETV
vector 50468  IntersectionExampleScenario.node[2].veinsmobility  acceleration  ETV
vector 50469  IntersectionExampleScenario.node[2].veinsmobility  co2emission  ETV
vector 50472  IntersectionExampleScenario.node[3].veinsmobility  posx  ETV
vector 50473  IntersectionExampleScenario.node[3].veinsmobility  posy  ETV
vector 50479  IntersectionExampleScenario.node[4].veinsmobility  posx  ETV
vector 50480  IntersectionExampleScenario.node[4].veinsmobility  posy  ETV
vector 50474  IntersectionExampleScenario.node[3].veinsmobility  speed  ETV
vector 50481  IntersectionExampleScenario.node[4].veinsmobility  speed  ETV
vector 50475  IntersectionExampleScenario.node[3].veinsmobility  acceleration  ETV
vector 50476  IntersectionExampleScenario.node[3].veinsmobility  co2emission  ETV
vector 50482  IntersectionExampleScenario.node[4].veinsmobility  acceleration  ETV
vector 50483  IntersectionExampleScenario.node[4].veinsmobility  co2emission  ETV
vector 50486  IntersectionExampleScenario.node[5].veinsmobility  posx  ETV
vector 50487  IntersectionExampleScenario.node[5].veinsmobility  posy  ETV
vector 50488  IntersectionExampleScenario.node[5].veinsmobility  speed  ETV
vector 50489  IntersectionExampleScenario.node[5].veinsmobility  acceleration  ETV
vector 50490  IntersectionExampleScenario.node[5].veinsmobility  co2emission  ETV
vector 50493  IntersectionExampleScenario.node[6].veinsmobility  posx  ETV
vector 50494  IntersectionExampleScenario.node[6].veinsmobility  posy  ETV
vector 50500  IntersectionExampleScenario.node[7].veinsmobility  posx  ETV
vector 50501  IntersectionExampleScenario.node[7].veinsmobility  posy  ETV
vector 50495  IntersectionExampleScenario.node[6].veinsmobility  speed  ETV
vector 50496  IntersectionExampleScenario.node[6].veinsmobility  acceleration  ETV
vector 50497  IntersectionExampleScenario.node[6].veinsmobility  co2emission  ETV
vector 50502  IntersectionExampleScenario.node[7].veinsmobility  speed  ETV
vector 50503  IntersectionExampleScenario.node[7].veinsmobility  acceleration  ETV
vector 50504  IntersectionExampleScenario.node[7].veinsmobility  co2emission  ETV
vector 50507  IntersectionExampleScenario.node[8].veinsmobility  posx  ETV
vector 50508  IntersectionExampleScenario.node[8].veinsmobility  posy  ETV
vector 50509  IntersectionExampleScenario.node[8].veinsmobility  speed  ETV
vector 50510  IntersectionExampleScenario.node[8].veinsmobility  acceleration  ETV
vector 50511  IntersectionExampleScenario.node[8].veinsmobility  co2emission  ETV
vector 50514  IntersectionExampleScenario.node[9].veinsmobility  posx  ETV
vector 50515  IntersectionExampleScenario.node[9].veinsmobility  posy  ETV
vector 50516  IntersectionExampleScenario.node[9].veinsmobility  speed  ETV
vector 50517  IntersectionExampleScenario.node[9].veinsmobility  acceleration  ETV
vector 50518  IntersectionExampleScenario.node[9].veinsmobility  co2emission  ETV
vector 50521  IntersectionExampleScenario.node[10].veinsmobility  posx  ETV
vector 50522  IntersectionExampleScenario.node[10].veinsmobility  posy  ETV
vector 50528  IntersectionExampleScenario.node[11].veinsmobility  posx  ETV
vector 50529  IntersectionExampleScenario.node[11].veinsmobility  posy  ETV
vector 50523  IntersectionExampleScenario.node[10].veinsmobility  speed  ETV
vector 50530  IntersectionExampleScenario.node[11].veinsmobility  speed  ETV
vector 50524  IntersectionExampleScenario.node[10].veinsmobility  acceleration  ETV
vector 50525  IntersectionExampleScenario.node[10].veinsmobility  co2emission  ETV
vector 50531  IntersectionExampleScenario.node[11].veinsmobility  acceleration  ETV
vector 50532  IntersectionExampleScenario.node[11].veinsmobility  co2emission  ETV
vector 50535  IntersectionExampleScenario.node[12].veinsmobility  posx  ETV
vector 50536  IntersectionExampleScenario.node[12].veinsmobility  posy  ETV
vector 50542  IntersectionExampleScenario.node[13].veinsmobility  posx  ETV
vector 50543  IntersectionExampleScenario.node[13].veinsmobility  posy  ETV
vector 50537  IntersectionExampleScenario.node[12].veinsmobility  speed  ETV
vector 50538  IntersectionExampleScenario.node[12].veinsmobility  acceleration  ETV
vector 50539  IntersectionExampleScenario.node[12].veinsmobility  co2emission  ETV
vector 50544  IntersectionExampleScenario.node[13].veinsmobility  speed  ETV
vector 50545  IntersectionExampleScenario.node[13].veinsmobility  acceleration  ETV
vector 50546  IntersectionExampleScenario.node[13].veinsmobility  co2emission  ETV
vector 50549  IntersectionExampleScenario.node[14].veinsmobility  posx  ETV
vector 50550  IntersectionExampleScenario.node[14].veinsmobility  posy  ETV
vector 50551  IntersectionExampleScenario.node[14].veinsmobility  speed  ETV
vector 50552  IntersectionExampleScenario.node[14].veinsmobility  acceleration  ETV
vector 50553  IntersectionExampleScenario.node[14].veinsmobility  co2emission  ETV
vector 50556  IntersectionExampleScenario.node[15].veinsmobility  posx  ETV
vector 50557  IntersectionExampleScenario.node[15].veinsmobility  posy  ETV
vector 50558  IntersectionExampleScenario.node[15].veinsmobility  speed  ETV
vector 50559  IntersectionExampleScenario.node[15].veinsmobility  acceleration  ETV
vector 50560  IntersectionExampleScenario.node[15].veinsmobility  co2emission  ETV
vector 50563  IntersectionExampleScenario.node[16].veinsmobility  posx  ETV
vector 50564  IntersectionExampleScenario.node[16].veinsmobility  posy  ETV
vector 50565  IntersectionExampleScenario.node[16].veinsmobility  speed  ETV
vector 50566  IntersectionExampleScenario.node[16].veinsmobility  acceleration  ETV
vector 50567  IntersectionExampleScenario.node[16].veinsmobility  co2emission  ETV
vector 50570  IntersectionExampleScenario.node[17].veinsmobility  posx  ETV
vector 50571  IntersectionExampleScenario.node[17].veinsmobility  posy  ETV
vector 50572  IntersectionExampleScenario.node[17].veinsmobility  speed  ETV
vector 50573  IntersectionExampleScenario.node[17].veinsmobility  acceleration  ETV
vector 50574  IntersectionExampleScenario.node[17].veinsmobility  co2emission  ETV
vector 50577  IntersectionExampleScenario.node[18].veinsmobility  posx  ETV
vector 50578  IntersectionExampleScenario.node[18].veinsmobility  posy  ETV
vector 50584  IntersectionExampleScenario.node[19].veinsmobility  posx  ETV
vector 50585  IntersectionExampleScenario.node[19].veinsmobility  posy  ETV
vector 50579  IntersectionExampleScenario.node[18].veinsmobility  speed  ETV
vector 50580  IntersectionExampleScenario.node[18].veinsmobility  acceleration  ETV
vector 50581  IntersectionExampleScenario.node[18].veinsmobility  co2emission  ETV
vector 50586  IntersectionExampleScenario.node[19].veinsmobility  speed  ETV
vector 50587  IntersectionExampleScenario.node[19].veinsmobility  acceleration  ETV
vector 50588  IntersectionExampleScenario.node[19].veinsmobility  co2emission  ETV
50462	10906 4856 12 3256 0.75 39.75 157 0.973 12.099024792222 520.26295920134 3018.5522210952
50461	15762 4584 12 3256 0.75 39.75 157 -3.2442054748535 2.5 40.038900375366 300.39459297705
50460	20346 4768 7 3256 0.5 39.75 158 5.6500000953674 16.27499961853 2178.8036336899 31568.190182397
50459	25114 5120 2 3256 0.25 39.75 159 238.18963623047 483.14999389648 68922.604125977 30767778.146046
50458	30234 5101 2 3256 0.25 39.75 159 184.17810058594 483.14999389648 63222.161773682 26857394.368062
50476	35335 4721 91 3401 3.5 41 151 0.973 12.099024792222 484.63932310442 2737.0470039873
50475	40056 4451 91 3401 3.5 41 151 -3.3015441894531 2.5 40.038900375366 214.29066054663
50474	44507 4691 80 3401 3.25 41 152 5.6500000953674 16.27499961853 2222.9441194534 33242.732746531
50473	49198 4958 69 3401 3 41 153 486.85000610352 486.85000610352 74488.050933838 36264508.051778
50472	54156 4937 69 3401 3 41 153 235.4130859375 785.82187652588 79763.297737122 45666266.722443
vector 50591  IntersectionExampleScenario.node[20].veinsmobility  posx  ETV
vector 50592  IntersectionExampleScenario.node[20].veinsmobility  posy  ETV
vector 50593  IntersectionExampleScenario.node[20].veinsmobility  speed  ETV
vector 50594  IntersectionExampleScenario.node[20].veinsmobility  acceleration  ETV
vector 50595  IntersectionExampleScenario.node[20].veinsmobility  co2emission  ETV
50483	59494 5251 91 3912 3.5 45.25 168 0.973 11.200708441096 497.40711647301 2537.8703176805
50482	64745 4843 91 3912 3.5 45.25 168 -3.3604888916016 2.5 35.795072555542 253.54079257374
50481	69588 5199 80 3912 3.25 45.25 169 5.6500000953674 15.02499961853 2235.3118915558 30701.060529224
50480	74787 5508 69 3912 3 45.25 170 238.04571533203 483.14999389648 73694.084625244 32903486.078708
50479	80295 5496 69 3912 3 45.25 170 169.95465087891 483.14999389648 66654.860809326 28135414.347324
50490	85791 5190 183 3973 5.5 45.75 162 0.973 11.200708441096 471.24388134475 2243.3970293981
50489	90981 4428 183 3973 5.5 45.75 162 -3.8073501586914 2.5 36.813589096069 178.52127883907
50488	95409 5086 170 3973 5.25 45.75 163 5.6500000953674 15.02499961853 2287.3228940964 32658.750685674
50487	100495 5342 157 3973 5 45.75 164 486.85000610352 486.85000610352 79843.401000977 38871760.264651
50486	105837 5326 157 3973 5 45.75 164 237.15502929688 803.92188262939 86906.231117249 50679483.132689
50455	111163 6147 12 4708 0.75 52.5 208 0.973 11.450879080643 570.39145311784 2812.1082325374
50454	117310 5540 12 4708 0.75 52.5 208 -7.4570107460022 4 37.32285118103 469.21634536335
50453	122850 5940 7 4708 0.5 52.5 209 0 15.375 2201.4408265352 30673.297377823
50452	128790 6778 2 4708 0.25 52.5 210 184.17810058594 486.85000610352 87158.602844238 38164490.396594
50451	135568 6801 2 4708 0.25 52.5 210 236.78112792969 486.85000610352 93697.507385254 42882521.835121
50497	142369 5615 280 4826 7.25 53.75 187 0.973 11.54047740176 533.84977164412 2746.1903129099
50496	147984 5749 280 4826 7.25 53.75 187 -2.4723014831543 2.5 36.98334312439 297.54933292851
50495	153733 5971 263 4826 7 53.75 188 1.9680035114288 15.5 2223.8959619999 29754.353879774
50494	159704 6134 248 4826 6.75 53.75 189 184.17810058594 735.29133605957 85021.234436035 42506753.356621
50493	165838 6182 248 4826 6.75 53.75 189 486.85000610352 486.85000610352 92014.651153564 44797333.475726
vector 50598  IntersectionExampleScenario.node[21].veinsmobility  posx  ETV
vector 50599  IntersectionExampleScenario.node[21].veinsmobility  posy  ETV
vector 50600  IntersectionExampleScenario.node[21].veinsmobility  speed  ETV
vector 50601  IntersectionExampleScenario.node[21].veinsmobility  acceleration  ETV
vector 50602  IntersectionExampleScenario.node[21].veinsmobility  co2emission  ETV
vector 50605  IntersectionExampleScenario.node[22].veinsmobility  posx  ETV
vector 50606  IntersectionExampleScenario.node[22].veinsmobility  posy  ETV
vector 50607  IntersectionExampleScenario.node[22].veinsmobility  speed  ETV
vector 50608  IntersectionExampleScenario.node[22].veinsmobility  acceleration  ETV
vector 50609  IntersectionExampleScenario.node[22].veinsmobility  co2emission  ETV
vector 50612  IntersectionExampleScenario.node[23].veinsmobility  posx  ETV
vector 50613  IntersectionExampleScenario.node[23].veinsmobility  posy  ETV
vector 50619  IntersectionExampleScenario.node[24].veinsmobility  posx  ETV
vector 50620  IntersectionExampleScenario.node[24].veinsmobility  posy  ETV
vector 50614  IntersectionExampleScenario.node[23].veinsmobility  speed  ETV
vector 50621  IntersectionExampleScenario.node[24].veinsmobility  speed  ETV
vector 50615  IntersectionExampleScenario.node[23].veinsmobility  acceleration  ETV
vector 50616  IntersectionExampleScenario.node[23].veinsmobility  co2emission  ETV
vector 50622  IntersectionExampleScenario.node[24].veinsmobility  acceleration  ETV
vector 50623  IntersectionExampleScenario.node[24].veinsmobility  co2emission  ETV
50469	173624 6874 41 5517 2 62 241 0.973 11.810082123732 615.92103746545 3080.3053168994
50468	180498 6366 41 5517 2 62 241 -7.6570835113525 4 39.190130233765 493.56182730084
50467	186864 6479 34 5517 1.75 62 242 0 15.875 2174.6032671928 30950.725524451
50466	193343 7903 27 5517 1.5 62 243 486.63604736328 785.82187652588 133013.95261383 74839438.383205
50465	201246 7845 27 5517 1.5 62 243 237.61102294922 483.14999389648 109378.28991699 50277439.740481
vector 50626  IntersectionExampleScenario.node[25].veinsmobility  posx  ETV
vector 50627  IntersectionExampleScenario.node[25].veinsmobility  posy  ETV
vector 50628  IntersectionExampleScenario.node[25].veinsmobility  speed  ETV
vector 50629  IntersectionExampleScenario.node[25].veinsmobility  acceleration  ETV
vector 50630  IntersectionExampleScenario.node[25].veinsmobility  co2emission  ETV
50504	209492 6984 297 5690 7.5 64.5 229 0.973 11.810082123732 600.58907718363 3044.6584789853
50503	216476 7205 297 5690 7.5 64.5 229 -3.9128124713898 2.5 39.699392318726 373.24752628695
50502	223681 7251 280 5690 7.25 64.5 230 0 15.875 2176.1230054554 29933.852151692
50501	230932 7552 263 5690 7 64.5 231 486.83026123047 785.82187652588 127722.81635284 72551098.881408
50500	238484 7564 263 5690 7 64.5 231 238.87902832031 483.14999389648 103712.97888184 47574424.981214
50539	246048 5315 1597 5834 24.25 66.75 171 0.973 11.648172402475 549.66334088826 3119.3797332698
50538	251363 5063 1597 5834 24.25 66.75 171 -3.7975959777832 2.5 38.511121749878 330.10601862059
50537	256426 5389 1570 5834 24 66.75 172 5.6500000953674 15.64999961853 2210.017970562 30025.879393098
50536	261815 5695 1545 5834 23.75 66.75 173 483.14999389648 785.82187652588 98560.766059875 57939560.196482
50535	267510 5702 1545 5834 23.75 66.75 173 483.14999389648 733.29518127441 91984.27532959 49899439.502214
vector 50633  IntersectionExampleScenario.node[26].veinsmobility  posx  ETV
vector 50634  IntersectionExampleScenario.node[26].veinsmobility  posy  ETV
vector 50640  IntersectionExampleScenario.node[27].veinsmobility  posx  ETV
vector 50641  IntersectionExampleScenario.node[27].veinsmobility  posy  ETV
vector 50635  IntersectionExampleScenario.node[26].veinsmobility  speed  ETV
vector 50636  IntersectionExampleScenario.node[26].veinsmobility  acceleration  ETV
vector 50637  IntersectionExampleScenario.node[26].veinsmobility  co2emission  ETV
vector 50642  IntersectionExampleScenario.node[27].veinsmobility  speed  ETV
vector 50643  IntersectionExampleScenario.node[27].veinsmobility  acceleration  ETV
vector 50644  IntersectionExampleScenario.node[27].veinsmobility  co2emission  ETV
vector 50647  IntersectionExampleScenario.node[28].veinsmobility  posx  ETV
vector 50648  IntersectionExampleScenario.node[28].veinsmobility  posy  ETV
vector 50649  IntersectionExampleScenario.node[28].veinsmobility  speed  ETV
vector 50654  IntersectionExampleScenario.node[29].veinsmobility  posx  ETV
vector 50655  IntersectionExampleScenario.node[29].veinsmobility  posy  ETV
vector 50661  IntersectionExampleScenario.node[30].veinsmobility  posx  ETV
vector 50662  IntersectionExampleScenario.node[30].veinsmobility  posy  ETV
vector 50650  IntersectionExampleScenario.node[28].veinsmobility  acceleration  ETV
vector 50651  IntersectionExampleScenario.node[28].veinsmobility  co2emission  ETV
vector 50656  IntersectionExampleScenario.node[29].veinsmobility  speed  ETV
vector 50663  IntersectionExampleScenario.node[30].veinsmobility  speed  ETV
vector 50657  IntersectionExampleScenario.node[29].veinsmobility  acceleration  ETV
vector 50658  IntersectionExampleScenario.node[29].veinsmobility  co2emission  ETV
vector 50664  IntersectionExampleScenario.node[30].veinsmobility  acceleration  ETV
vector 50665  IntersectionExampleScenario.node[30].veinsmobility  co2emission  ETV
50546	275217 5737 1624 6059 24.5 69.75 182 0.973 11.363938271181 571.62187384744 3099.5195605504
50545	280954 5615 1624 6059 24.5 69.75 182 -4.5 2.5 36.813589096069 413.83594677377
50544	286569 5745 1597 6059 24.25 69.75 183 5.6500000953674 15.253529548645 2276.9333081245 29969.784713226
50543	292314 6059 1570 6059 24 69.75 184 486.67440795898 810.23281097412 107217.80435944 64718407.077894
50542	298373 6064 1570 6059 24 69.75 184 238.21301269531 483.14999389648 80613.827758789 36295861.341166
vector 50668  IntersectionExampleScenario.node[31].veinsmobility  posx  ETV
vector 50669  IntersectionExampleScenario.node[31].veinsmobility  posy  ETV
vector 50670  IntersectionExampleScenario.node[31].veinsmobility  speed  ETV
vector 50671  IntersectionExampleScenario.node[31].veinsmobility  acceleration  ETV
vector 50672  IntersectionExampleScenario.node[31].veinsmobility  co2emission  ETV
50525	304838 5733 1521 6155 23.5 70.75 190 0.93438186594183 12.26218747632 582.45216288905 3312.4885232903
50524	310571 5503 1521 6155 23.5 70.75 190 -7.2880325317383 4 41.057416915894 496.17494209542
50523	316074 5578 1496 6155 23.25 70.75 191 0 16.5 2183.7521471977 31817.285757586
50522	321652 6249 1471 6155 23 70.75 192 486.85000610352 734.55892944336 101414.12419128 54544397.059412
50521	327901 6327 1471 6155 23 70.75 192 486.63604736328 785.82187652588 107385.27635956 61922192.797431
vector 50675  IntersectionExampleScenario.node[32].veinsmobility  posx  ETV
vector 50676  IntersectionExampleScenario.node[32].veinsmobility  posy  ETV
vector 50677  IntersectionExampleScenario.node[32].veinsmobility  speed  ETV
vector 50682  IntersectionExampleScenario.node[33].veinsmobility  posx  ETV
vector 50683  IntersectionExampleScenario.node[33].veinsmobility  posy  ETV
vector 50678  IntersectionExampleScenario.node[32].veinsmobility  acceleration  ETV
vector 50679  IntersectionExampleScenario.node[32].veinsmobility  co2emission  ETV
50511	334783 6803 743 6234 14 71.5 231 0.973 11.450879080643 596.27091679638 2864.4875941309
50510	341586 6038 743 6234 14 71.5 231 -7.1783399581909 4 37.32285118103 504.87678663191
50509	347624 6498 724 6234 13.75 71.5 232 0 15.375 2213.7710914612 31088.968929122
50508	354122 7673 705 6234 13.5 71.5 233 483.14999389648 483.14999389648 112573.94857788 54390102.568306
50507	361795 7641 705 6234 13.5 71.5 233 184.17810058594 733.81198120117 106315.05331421 52741143.28102
vector 50684  IntersectionExampleScenario.node[33].veinsmobility  speed  ETV
vector 50685  IntersectionExampleScenario.node[33].veinsmobility  acceleration  ETV
vector 50686  IntersectionExampleScenario.node[33].veinsmobility  co2emission  ETV
50518	369683 6892 1051 6408 18 73 221 0.973 11.458198642884 591.59646224988 2818.8988163966
50517	376575 7106 1051 6408 18 73 221 -4.5 2.5000009536743 38.680875778198 387.96439504247
50516	383681 7291 1030 6408 17.75 73 222 0 15.465605735779 2232.0616068859 30909.72636357
50515	390972 7353 1009 6408 17.5 73 223 483.14999389648 733.55375671387 116138.58570862 61568435.839929
50514	398325 7309 1009 6408 17.5 73 223 177.97814941406 486.94140625 92435.420898438 40390118.298834
50567	405634 5597 2261 6669 30.5 75.25 180 0.973 11.648172402475 580.69876303904 3043.6511238184
50566	411231 5535 2261 6669 30.5 75.25 180 -4.5 2.5 41.057416915894 385.61253322794
50565	416766 5795 2234 6669 30.25 75.25 181 5.0764751434326 15.958181381226 2274.4159140587 31472.74854814
50564	422561 6005 2207 6669 30 75.25 182 486.85000610352 486.85000610352 88606.70111084 43138172.976625
50563	428566 5986 2207 6669 30 75.25 182 237.59381103516 801.05079650879 96681.002624512 55709919.333343
50532	434552 6240 1521 6698 23.5 75.5 209 0.973 11.200708441096 551.34806102858 2677.2307553041
50531	440792 6389 1521 6698 23.5 75.5 209 -3.3475747108459 2.5000009536743 35.625318527222 332.10330862136
50530	447181 6751 1496 6698 23.25 75.5 210 0 15.02499961853 2216.7629169822 28238.776823978
50529	453932 6962 1471 6698 23 75.5 211 483.14999389648 483.14999389648 101944.64871216 49254556.403058
50528	460894 6923 1471 6698 23 75.5 211 184.17810058594 733.7290802002 94570.771652222 46698682.938847
50553	467817 5984 1910 6727 27.25 75.75 195 0.973 11.648172402475 572.32106049958 2962.7557012338
50552	473801 5873 1910 6727 27.25 75.75 195 -22.360780715942 4 38.341367721558 921.03774792579
50551	479674 6231 1883 6727 27 75.75 196 0 15.64999961853 2207.4630088806 30176.69273711
50550	485905 6491 1856 6727 26.75 75.75 197 486.85000610352 732.24836730957 104038.08062744 55933759.233859
50549	492396 6481 1856 6727 26.75 75.75 197 486.81088256836 793.78281402588 111166.80975342 64719696.619691
vector 50689  IntersectionExampleScenario.node[34].veinsmobility  posx  ETV
vector 50690  IntersectionExampleScenario.node[34].veinsmobility  posy  ETV
vector 50691  IntersectionExampleScenario.node[34].veinsmobility  speed  ETV
vector 50692  IntersectionExampleScenario.node[34].veinsmobility  acceleration  ETV
vector 50693  IntersectionExampleScenario.node[34].veinsmobility  co2emission  ETV
vector 50696  IntersectionExampleScenario.node[35].veinsmobility  posx  ETV
vector 50697  IntersectionExampleScenario.node[35].veinsmobility  posy  ETV
vector 50698  IntersectionExampleScenario.node[35].veinsmobility  speed  ETV
vector 50699  IntersectionExampleScenario.node[35].veinsmobility  acceleration  ETV
vector 50700  IntersectionExampleScenario.node[35].veinsmobility  co2emission  ETV
50574	499679 5205 2937 7034 36.75 78.25 167 0.973 11.200708441096 537.44474476038 3032.0406734631
50573	504884 5057 2937 7034 36.75 78.25 167 -3.2959289550781 2.5 37.15309715271 297.42694270987
50572	509941 5366 2910 7034 36.5 78.25 168 5.6500000953674 15.073283195496 2215.000371933 30142.949006976
50571	515307 5571 2882 7034 36.25 78.25 169 483.14999389648 735.07363891602 90347.851928711 49313035.559568
50570	520878 5554 2882 7034 36.25 78.25 169 184.17810058594 486.87347412109 67408.547790527 28689439.045992
50588	526432 4962 3227 7158 39.5 79.25 160 0.973 11.35186787614 497.18543043637 2834.716207859
50587	531394 4704 3227 7158 39.5 79.25 160 -2.8733901977539 2.5 36.813589096069 223.03726439365
50586	536098 5084 3198 7158 39.25 79.25 161 5.6500000953674 15.236651420593 2215.289560318 31031.124523424
50585	541182 5345 3169 7158 39 79.25 162 486.85000610352 486.85000610352 78869.70098877 38397714.407765
50584	546527 5336 3169 7158 39 79.25 162 236.92388916016 785.82187652588 84504.15952301 48303856.021575
50595	551863 4900 3695 7406 43.5 81.25 152 0.973 11.200708441096 482.82222157045 2390.8112731461
50594	556763 4660 3695 7406 43.5 81.25 152 -4.0712432861328 2.5 40.038900375366 193.77247346926
50593	561423 4818 3664 7406 43.25 81.25 153 5.6500000953674 15.857221603394 2225.6856012344 33101.951044411
50592	566241 5081 3633 7406 43 81.25 154 483.14999389648 483.14999389648 74405.099060059 35948823.156735
50591	571322 5043 3633 7406 43 81.25 154 184.17810058594 735.28311157227 69126.21496582 35144432.569234
vector 50703  IntersectionExampleScenario.node[36].veinsmobility  posx  ETV
vector 50704  IntersectionExampleScenario.node[36].veinsmobility  posy  ETV
vector 50705  IntersectionExampleScenario.node[36].veinsmobility  speed  ETV
50560	576597 6448 2021 7647 28.25 83.25 221 0.973 12.553400930962 638.01350076929 3421.3031783502
50559	583045 6126 2021 7647 28.25 83.25 221 -7.0509309768677 4 43.943227767944 501.91990534613
50558	589171 6196 1993 7647 28 83.25 222 0 16.89999961853 2215.119287014 33566.116394406
50557	595367 7326 1964 7647 27.75 83.25 223 184.17810058594 733.5887298584 101506.76565552 50141615.655171
50556	602693 7359 1964 7647 27.75 83.25 223 486.85000610352 486.85000610352 108567.55136108 52856113.042787
vector 50710  IntersectionExampleScenario.node[37].veinsmobility  posx  ETV
vector 50711  IntersectionExampleScenario.node[37].veinsmobility  posy  ETV
vector 50706  IntersectionExampleScenario.node[36].veinsmobility  acceleration  ETV
vector 50707  IntersectionExampleScenario.node[36].veinsmobility  co2emission  ETV
vector 50712  IntersectionExampleScenario.node[37].veinsmobility  speed  ETV
vector 50713  IntersectionExampleScenario.node[37].veinsmobility  acceleration  ETV
vector 50714  IntersectionExampleScenario.node[37].veinsmobility  co2emission  ETV
vector 50717  IntersectionExampleScenario.node[38].veinsmobility  posx  ETV
vector 50718  IntersectionExampleScenario.node[38].veinsmobility  posy  ETV
vector 50719  IntersectionExampleScenario.node[38].veinsmobility  speed  ETV
vector 50720  IntersectionExampleScenario.node[38].veinsmobility  acceleration  ETV
vector 50721  IntersectionExampleScenario.node[38].veinsmobility  co2emission  ETV
vector 50724  IntersectionExampleScenario.node[39].veinsmobility  posx  ETV
vector 50725  IntersectionExampleScenario.node[39].veinsmobility  posy  ETV
vector 50726  IntersectionExampleScenario.node[39].veinsmobility  speed  ETV
vector 50731  IntersectionExampleScenario.node[40].veinsmobility  posx  ETV
vector 50732  IntersectionExampleScenario.node[40].veinsmobility  posy  ETV
vector 50727  IntersectionExampleScenario.node[39].veinsmobility  acceleration  ETV
vector 50728  IntersectionExampleScenario.node[39].veinsmobility  co2emission  ETV
vector 50733  IntersectionExampleScenario.node[40].veinsmobility  speed  ETV
vector 50734  IntersectionExampleScenario.node[40].veinsmobility  acceleration  ETV
vector 50735  IntersectionExampleScenario.node[40].veinsmobility  co2emission  ETV
vector 50738  IntersectionExampleScenario.node[41].veinsmobility  posx  ETV
vector 50739  IntersectionExampleScenario.node[41].veinsmobility  posy  ETV
vector 50740  IntersectionExampleScenario.node[41].veinsmobility  speed  ETV
vector 50741  IntersectionExampleScenario.node[41].veinsmobility  acceleration  ETV
vector 50742  IntersectionExampleScenario.node[41].veinsmobility  co2emission  ETV
50581	612226 6337 3198 9012 39.25 93.25 217 0.973 12.553400930962 622.98538960673 3518.4472026633
50580	618563 5973 3198 9012 39.25 93.25 217 -7.1767377853394 4 42.754949569702 522.93731255753
50579	624536 6039 3169 9012 39 93.25 218 0 16.89999961853 2170.6057157516 32351.895389998
50578	630575 7206 3142 9012 38.75 93.25 219 486.63604736328 785.82187652588 120651.84427643 68405177.524702
50577	637781 7156 3142 9012 38.75 93.25 219 238.89868164062 483.14999389648 98264.019012451 45052101.874146
vector 50745  IntersectionExampleScenario.node[42].veinsmobility  posx  ETV
vector 50746  IntersectionExampleScenario.node[42].veinsmobility  posy  ETV
vector 50752  IntersectionExampleScenario.node[43].veinsmobility  posx  ETV
vector 50753  IntersectionExampleScenario.node[43].veinsmobility  posy  ETV
vector 50747  IntersectionExampleScenario.node[42].veinsmobility  speed  ETV
vector 50748  IntersectionExampleScenario.node[42].veinsmobility  acceleration  ETV
vector 50749  IntersectionExampleScenario.node[42].veinsmobility  co2emission  ETV
vector 50754  IntersectionExampleScenario.node[43].veinsmobility  speed  ETV
vector 50755  IntersectionExampleScenario.node[43].veinsmobility  acceleration  ETV
vector 50756  IntersectionExampleScenario.node[43].veinsmobility  co2emission  ETV
50609	645739 5152 5161 9617 57.75 98.75 165 0.973 11.648172402475 552.32792357762 3302.4947858466
50608	650891 4847 5161 9617 57.75 98.75 165 -3.2156448364258 2.5 38.171613693237 341.30044968863
50607	655738 5159 5140 9617 57.5 98.75 166 5.6500000953674 15.64999961853 2186.3265666962 30175.496999024
50606	660897 5502 5119 9617 57.25 98.75 167 486.71878051758 785.82187652588 95466.892967224 56325848.912231
50605	666399 5502 5119 9617 57.25 98.75 167 236.22351074219 483.14999389648 72427.806732178 32357599.356706
vector 50759  IntersectionExampleScenario.node[44].veinsmobility  posx  ETV
vector 50760  IntersectionExampleScenario.node[44].veinsmobility  posy  ETV
vector 50761  IntersectionExampleScenario.node[44].veinsmobility  speed  ETV
vector 50762  IntersectionExampleScenario.node[44].veinsmobility  acceleration  ETV
vector 50763  IntersectionExampleScenario.node[44].veinsmobility  co2emission  ETV
vector 50766  IntersectionExampleScenario.node[45].veinsmobility  posx  ETV
vector 50767  IntersectionExampleScenario.node[45].veinsmobility  posy  ETV
vector 50773  IntersectionExampleScenario.node[46].veinsmobility  posx  ETV
vector 50774  IntersectionExampleScenario.node[46].veinsmobility  posy  ETV
vector 50780  IntersectionExampleScenario.node[47].veinsmobility  posx  ETV
vector 50781  IntersectionExampleScenario.node[47].veinsmobility  posy  ETV
vector 50768  IntersectionExampleScenario.node[45].veinsmobility  speed  ETV
vector 50775  IntersectionExampleScenario.node[46].veinsmobility  speed  ETV
vector 50782  IntersectionExampleScenario.node[47].veinsmobility  speed  ETV
vector 50787  IntersectionExampleScenario.node[48].veinsmobility  posx  ETV
vector 50788  IntersectionExampleScenario.node[48].veinsmobility  posy  ETV
vector 50769  IntersectionExampleScenario.node[45].veinsmobility  acceleration  ETV
vector 50770  IntersectionExampleScenario.node[45].veinsmobility  co2emission  ETV
vector 50776  IntersectionExampleScenario.node[46].veinsmobility  acceleration  ETV
vector 50777  IntersectionExampleScenario.node[46].veinsmobility  co2emission  ETV
vector 50783  IntersectionExampleScenario.node[47].veinsmobility  acceleration  ETV
vector 50784  IntersectionExampleScenario.node[47].veinsmobility  co2emission  ETV
vector 50789  IntersectionExampleScenario.node[48].veinsmobility  speed  ETV
50630	673737 4858 5605 9907 63.25 101 152 0.973 11.648172402475 480.74181475822 2643.865217974
50629	678595 4561 5605 9907 63.25 101 152 -3.0473098754883 2.5 39.359884262085 201.57376776179
50628	683156 4818 5587 9907 63 101 153 5.6500000953674 15.995309829712 2214.1962537766 32734.433881551
50627	687974 5035 5568 9907 62.75 101 154 237.45721435547 785.82187652588 80409.906089783 46063640.294398
50626	693009 5086 5568 9907 62.75 101 154 483.14999389648 483.14999389648 74405.099060059 35948823.156735
vector 50794  IntersectionExampleScenario.node[49].veinsmobility  posx  ETV
vector 50795  IntersectionExampleScenario.node[49].veinsmobility  posy  ETV
vector 50790  IntersectionExampleScenario.node[48].veinsmobility  acceleration  ETV
vector 50791  IntersectionExampleScenario.node[48].veinsmobility  co2emission  ETV
vector 50801  IntersectionExampleScenario.node[50].veinsmobility  posx  ETV
vector 50802  IntersectionExampleScenario.node[50].veinsmobility  posy  ETV
vector 50796  IntersectionExampleScenario.node[49].veinsmobility  speed  ETV
vector 50797  IntersectionExampleScenario.node[49].veinsmobility  acceleration  ETV
vector 50798  IntersectionExampleScenario.node[49].veinsmobility  co2emission  ETV
vector 50803  IntersectionExampleScenario.node[50].veinsmobility  speed  ETV
vector 50808  IntersectionExampleScenario.node[51].veinsmobility  posx  ETV
vector 50809  IntersectionExampleScenario.node[51].veinsmobility  posy  ETV
vector 50804  IntersectionExampleScenario.node[50].veinsmobility  acceleration  ETV
vector 50805  IntersectionExampleScenario.node[50].veinsmobility  co2emission  ETV
vector 50810  IntersectionExampleScenario.node[51].veinsmobility  speed  ETV
vector 50811  IntersectionExampleScenario.node[51].veinsmobility  acceleration  ETV
vector 50812  IntersectionExampleScenario.node[51].veinsmobility  co2emission  ETV
50602	699467 5956 5059 10495 56.5 104.5 193 0.973 11.36141391502 551.99698256408 2769.5745057943
50601	705423 5432 5059 10495 56.5 104.5 193 -8.4870233535767 4 37.15309715271 476.36027920365
50600	710855 5782 5038 10495 56.25 104.5 194 0 15.25 2176.74477458 30094.703439055
50599	716637 6400 5017 10495 56 104.5 195 236.84155273438 483.14999389648 85876.910491943 38828978.318225
50598	723037 6446 5017 10495 56 104.5 195 184.17810058594 483.36395263672 79809.19241333 34565205.45749
50623	729483 5897 5232 10538 58.5 104.75 186 0.973 11.990504229548 585.31158537586 3061.8507605649
50622	735380 5600 5232 10538 58.5 104.75 186 -4.5 2.5000009536743 41.057416915894 492.99360308754
50621	740980 6042 5207 10538 58.25 104.75 187 0 16.125 2291.7186496388 33432.11342004
50620	747022 6237 5182 10538 58 104.75 188 483.14999389648 483.14999389648 90832.198852539 43885576.321208
50619	753259 6169 5182 10538 58 104.75 188 166.078125 733.85206604004 83235.74861145 41312155.65614
50644	759428 5192 5934 11097 68.25 108 160 0.973 11.450879080643 483.55874724144 2498.9327372035
50643	764620 4709 5934 11097 68.25 108 160 -3.2029113769531 2.5 36.98334312439 225.31289334086
50642	769329 5086 5915 11097 68 108 161 5.6500000953674 15.375 2213.4105415344 31255.671254689
50641	774415 5401 5896 11097 67.75 108 162 235.17932128906 486.85000610352 70173.385131836 31389703.239962
50640	779816 5396 5896 11097 67.75 108 162 483.11968994141 785.82187652588 92608.073554993 54738492.660881
50665	785212 4950 6036 11269 69.5 109 159 0.90753377507377 12.553400930962 610.9056103479 4148.8233788102
50664	790162 4781 6036 11269 69.5 109 159 -4.0902328491211 2.5000038146973 42.147497177124 415.84645248385
50663	794943 5020 6013 11269 69.25 109 160 5.6500000953674 16.89999961853 2189.3320055008 31553.857230316
50662	799963 5368 5990 11269 69 109 161 235.35418701172 483.14999389648 69652.233062744 31069076.862732
50661	805331 5344 5990 11269 69 109 161 184.17810058594 483.17147827148 64186.876495361 27294580.786586
50658	810675 5253 6036 11479 69.5 110.25 164 0.94385576368027 11.271866016264 557.66829703485 2910.8257688208
50657	815928 5350 6036 11479 69.5 110.25 164 -4.5 2.5 42.428556442261 276.52210391927
50656	821278 5471 6013 11479 69.25 110.25 165 5.6500000953674 16.457736968994 2298.3568201065 33556.914401324
50655	826749 5548 5990 11479 69 110.25 166 235.67321777344 486.85000610352 72429.278106689 32570393.872403
50654	832297 5537 5990 11479 69 110.25 166 483.14999389648 807.09531402588 95882.991203308 57509199.12402
50679	837834 5211 6234 11684 71.5 111.5 161 0.973 12.26218747632 561.28484891729 3241.3986504605
50678	843045 4854 6234 11684 71.5 111.5 161 -4.5 2.5 42.585195541382 347.98703049851
50677	847899 5094 6207 11684 71.25 111.5 162 5.6500000953674 16.5 2294.7338037491 34258.405962657
50676	852993 5444 6180 11684 71 111.5 163 486.85000610352 731.57414245605 86954.733413696 47264987.750271
50675	858437 5457 6180 11684 71 111.5 163 486.85000610352 814.55860137939 95200.478744507 57741542.438731
vector 50815  IntersectionExampleScenario.node[52].veinsmobility  posx  ETV
vector 50816  IntersectionExampleScenario.node[52].veinsmobility  posy  ETV
vector 50817  IntersectionExampleScenario.node[52].veinsmobility  speed  ETV
50686	864126 5261 6292 11808 72 112.25 162 0.973 11.648172402475 522.14965301072 2853.6090865445
50685	869387 5036 6292 11808 72 112.25 162 -4.5 2.5 39.869146347046 294.2764495932
50684	874423 5160 6263 11808 71.75 112.25 163 5.6500000953674 15.792058944702 2252.820646286 32604.148293208
50683	879583 5489 6234 11808 71.5 112.25 164 235.36303710938 483.14999389648 71137.779968262 31789286.641097
50682	885072 5480 6234 11808 71.5 112.25 164 168.58435058594 483.14999389648 64229.634155273 27121224.653753
vector 50818  IntersectionExampleScenario.node[52].veinsmobility  acceleration  ETV
vector 50819  IntersectionExampleScenario.node[52].veinsmobility  co2emission  ETV
vector 50822  IntersectionExampleScenario.node[53].veinsmobility  posx  ETV
vector 50823  IntersectionExampleScenario.node[53].veinsmobility  posy  ETV
vector 50824  IntersectionExampleScenario.node[53].veinsmobility  speed  ETV
vector 50825  IntersectionExampleScenario.node[53].veinsmobility  acceleration  ETV
vector 50826  IntersectionExampleScenario.node[53].veinsmobility  co2emission  ETV
50616	891122 6790 5232 12387 58.5 115.75 230 0.973 12.099024792222 616.35857379842 3254.79794963
50615	897912 6341 5232 12387 58.5 115.75 230 -7.8777389526367 4 40.038900375366 513.03969327146
50614	904253 6535 5207 12387 58.25 115.75 231 0 16.27499961853 2205.5867063999 32071.417650794
50613	910788 7750 5182 12387 58 115.75 232 184.17810058594 731.70051574707 105681.67745972 52194379.819971
50612	918538 7777 5182 12387 58 115.75 232 486.85000610352 486.85000610352 112949.20141602 54989319.398774
vector 50829  IntersectionExampleScenario.node[54].veinsmobility  posx  ETV
vector 50830  IntersectionExampleScenario.node[54].veinsmobility  posy  ETV
vector 50831  IntersectionExampleScenario.node[54].veinsmobility  speed  ETV
vector 50836  IntersectionExampleScenario.node[55].veinsmobility  posx  ETV
vector 50837  IntersectionExampleScenario.node[55].veinsmobility  posy  ETV
vector 50832  IntersectionExampleScenario.node[54].veinsmobility  acceleration  ETV
vector 50833  IntersectionExampleScenario.node[54].veinsmobility  co2emission  ETV
vector 50838  IntersectionExampleScenario.node[55].veinsmobility  speed  ETV
vector 50839  IntersectionExampleScenario.node[55].veinsmobility  acceleration  ETV
vector 50840  IntersectionExampleScenario.node[55].veinsmobility  co2emission  ETV
50637	927117 7033 5915 13932 68 126.25 234 0.973 11.648172402475 600.83341258103 2941.3761107118
50636	934150 6369 5915 13932 68 126.25 234 -7.4922199249268 4 38.171613693237 479.41769177267
50635	940519 6701 5896 13932 67.75 126.25 235 0 15.64999961853 2175.1207141876 30519.901571347
50634	947220 7982 5879 13932 67.5 126.25 236 486.63604736328 785.82187652588 129628.64922333 73221889.018925
50633	955202 7918 5879 13932 67.5 126.25 236 237.46997070312 483.14999389648 105854.6121521 48530508.503629
vector 50843  IntersectionExampleScenario.node[56].veinsmobility  posx  ETV
vector 50844  IntersectionExampleScenario.node[56].veinsmobility  posy  ETV
vector 50845  IntersectionExampleScenario.node[56].veinsmobility  speed  ETV
vector 50850  IntersectionExampleScenario.node[57].veinsmobility  posx  ETV
vector 50851  IntersectionExampleScenario.node[57].veinsmobility  posy  ETV
vector 50846  IntersectionExampleScenario.node[56].veinsmobility  acceleration  ETV
vector 50847  IntersectionExampleScenario.node[56].veinsmobility  co2emission  ETV
vector 50852  IntersectionExampleScenario.node[57].veinsmobility  speed  ETV
vector 50853  IntersectionExampleScenario.node[57].veinsmobility  acceleration  ETV
vector 50854  IntersectionExampleScenario.node[57].veinsmobility  co2emission  ETV
50651	963922 7676 5990 14210 69 128.75 240 0.973 11.648172402475 619.35169057768 2965.9690448014
50650	971598 7400 5990 14210 69 128.75 240 -4.5 2.5 38.511121749878 445.39506272866
50649	978998 7660 5971 14210 68.75 128.75 241 0 15.64999961853 2275.9576657312 31687.979186653
50648	986658 8194 5952 14210 68.5 128.75 242 486.85000610352 807.99687957764 135000.20832825 77692008.71021
50647	994852 8207 5952 14210 68.5 128.75 242 236.00817871094 483.14999389648 108699.00415039 49894946.85399
50672	1003059 7825 6155 14529 70.75 131.5 244 0.973 11.648172402475 624.24874322776 2983.1182366622
50671	1010884 7686 6155 14529 70.75 131.5 244 -4.5 2.5 38.341367721558 402.92360139006
50670	1018570 7972 6130 14529 70.5 131.5 245 0 15.64999961853 2309.927618213 31378.552495235
50669	1026542 8341 6105 14529 70.25 131.5 246 486.72103881836 816.14531707764 138387.92862701 80342636.092573
50668	1034883 8361 6105 14529 70.25 131.5 246 235.70770263672 483.14999389648 110583.82901001 50791273.206898
vector 50857  IntersectionExampleScenario.node[58].veinsmobility  posx  ETV
vector 50858  IntersectionExampleScenario.node[58].veinsmobility  posy  ETV
vector 50859  IntersectionExampleScenario.node[58].veinsmobility  speed  ETV
vector 50860  IntersectionExampleScenario.node[58].veinsmobility  acceleration  ETV
vector 50861  IntersectionExampleScenario.node[58].veinsmobility  co2emission  ETV
50700	1043645 6938 7003 14764 78 133.5 223 0.973 11.648172402475 585.15947522325 2903.8965082181
50699	1050583 7186 7003 14764 78 133.5 223 -3.9500885009766 2.5 38.850629806519 358.66009768315
50698	1057769 7321 6972 14764 77.75 133.5 224 0 15.64999961853 2180.6700431667 28113.30559066
50697	1065090 7672 6940 14764 77.5 133.5 225 486.77502441406 785.82187652588 126123.35405731 72538535.762633
50696	1072762 7683 6940 14764 77.5 133.5 225 237.95343017578 483.14999389648 100647.54772949 46044993.086826
50693	1080445 7099 6847 14906 76.75 134.75 233 0.973 12.099024792222 655.11677999656 3467.9530979755
50692	1087544 6631 6847 14906 76.75 134.75 233 -45.505393981934 4 42.827962875366 2414.9960388825
50691	1094175 6778 6816 14906 76.5 134.75 234 0 16.556270599365 2260.0326042175 34362.247070006
50690	1100953 8030 6785 14906 76.25 134.75 235 486.85000610352 486.85000610352 114409.75143433 55700388.184103
50689	1108983 7999 6785 14906 76.25 134.75 235 235.77178955078 796.72560882568 121535.66268158 67116990.905053
50735	1116982 6164 8188 14960 87.25 135.25 193 0.973 11.648172402475 560.94041258103 2902.5602217118
50734	1123146 5667 8188 14960 87.25 135.25 193 -7.4922709465027 4 38.171613693237 479.41813793154
50733	1128813 5995 8151 14960 87 135.25 194 0 15.64999961853 2175.1208316088 30519.903061611
50732	1134808 6637 8114 14960 86.75 135.25 195 237.46997070312 483.14999389648 86045.462402344 38959717.92294
50731	1141445 6684 8114 14960 86.75 135.25 195 184.17810058594 483.36395263672 79955.748382568 34676038.809037
50742	1148129 6159 8542 15117 89.75 136.75 189 0.973 11.54047740176 551.20490022263 2796.2781660781
50741	1154288 5922 8542 15117 89.75 136.75 189 -4.5 2.5000019073486 37.15309715271 414.95661606896
50740	1160210 6388 8507 15117 89.5 136.75 190 0 15.5 2282.4221132584 31503.255928011
50739	1166598 6594 8471 15117 89.25 136.75 191 483.14999389648 483.14999389648 92281.648834229 44585878.071015
50738	1173192 6556 8471 15117 89.25 136.75 191 168.58435058594 734.68305969238 84974.740707397 42406689.244874
50721	1179748 6450 7945 15142 85.5 137 207 0.973 12.099024792222 587.37553139316 3243.0553542703
50720	1186198 6946 7945 15142 85.5 137 207 -3.6969757080078 2.5 40.887662887573 356.31851485437
50719	1193144 7092 7911 15142 85.25 137 208 0 16.471532821655 2221.9203217141 30654.23686128
50718	1200236 7186 7876 15142 85 137 209 486.85000610352 486.85000610352 101751.65127563 49537792.044585
50717	1207422 7168 7876 15142 85 137 209 235.45941162109 785.82187652588 108778.01450348 60681767.583918
vector 50864  IntersectionExampleScenario.node[59].veinsmobility  posx  ETV
vector 50865  IntersectionExampleScenario.node[59].veinsmobility  posy  ETV
vector 50866  IntersectionExampleScenario.node[59].veinsmobility  speed  ETV
vector 50867  IntersectionExampleScenario.node[59].veinsmobility  acceleration  ETV
vector 50868  IntersectionExampleScenario.node[59].veinsmobility  co2emission  ETV
50728	1214991 6891 8114 15510 86.75 140.75 217 0.973 11.36141391502 572.66353732143 2804.6922653576
50727	1221882 7103 8114 15510 86.75 140.75 217 -4.5 2.5 35.964826583862 364.10201318471
50726	1228985 7185 8079 15510 86.5 140.75 218 2.1313376426697 15.25 2271.437574625 28493.399313411
50725	1236170 7544 8044 15510 86.25 140.75 219 486.85000610352 733.86158752441 115163.28260803 61630748.886918
50724	1243714 7535 8044 15510 86.25 140.75 219 486.8154296875 807.09531402588 125024.72496796 73586121.364053
50784	1251249 5379 9870 15510 100.75 140.75 161 0.973 11.648172402475 550.93310307682 3356.3387820084
50783	1256628 5057 9870 15510 100.75 140.75 161 -3.450704574585 2.5 38.850629806519 340.63273309519
50782	1261685 5364 9835 15510 100.5 140.75 162 5.6500000953674 15.64999961853 2190.2234597206 30959.39810294
50781	1267049 5698 9799 15510 100.25 140.75 163 235.65399169922 483.14999389648 70555.276519775 31476319.238698
50780	1272747 5679 9799 15510 100.25 140.75 163 184.17810058594 483.32354736328 64796.299102783 27496580.013677
vector 50871  IntersectionExampleScenario.node[60].veinsmobility  posx  ETV
vector 50872  IntersectionExampleScenario.node[60].veinsmobility  posy  ETV
50791	1278580 5437 9944 15560 101.25 141.25 161 0.95532711077743 11.917427265055 526.76560671436 2944.1168296317
50790	1284017 5178 9944 15560 101.25 141.25 161 -4.8967247009277 2.5 39.699392318726 267.23583249119
50789	1289195 5440 9907 15560 101 141.25 162 5.6500000953674 16.023834228516 2312.8068990707 33785.481826567
50788	1294635 5701 9870 15560 100.75 141.25 163 483.14999389648 483.14999389648 78753.449005127 38049728.406154
50787	1300336 5676 9870 15560 100.75 141.25 163 160.43438720703 732.89933776855 70920.437179565 35503658.286334
vector 50878  IntersectionExampleScenario.node[61].veinsmobility  posx  ETV
vector 50879  IntersectionExampleScenario.node[61].veinsmobility  posy  ETV
vector 50873  IntersectionExampleScenario.node[60].veinsmobility  speed  ETV
vector 50874  IntersectionExampleScenario.node[60].veinsmobility  acceleration  ETV
vector 50875  IntersectionExampleScenario.node[60].veinsmobility  co2emission  ETV
vector 50880  IntersectionExampleScenario.node[61].veinsmobility  speed  ETV
vector 50885  IntersectionExampleScenario.node[62].veinsmobility  posx  ETV
vector 50886  IntersectionExampleScenario.node[62].veinsmobility  posy  ETV
vector 50881  IntersectionExampleScenario.node[61].veinsmobility  acceleration  ETV
vector 50882  IntersectionExampleScenario.node[61].veinsmobility  co2emission  ETV
vector 50887  IntersectionExampleScenario.node[62].veinsmobility  speed  ETV
vector 50888  IntersectionExampleScenario.node[62].veinsmobility  acceleration  ETV
vector 50889  IntersectionExampleScenario.node[62].veinsmobility  co2emission  ETV
50770	1307061 5549 9870 15764 100.75 143 170 0.97223939240464 11.648172402475 533.33192813054 3025.3665531429
50769	1312610 5426 9870 15764 100.75 143 170 -3.2439022064209 2.5 38.680875778198 292.86699823747
50768	1318036 5652 9835 15764 100.5 143 171 5.6500000953674 15.64999961853 2188.7753834724 29526.137027945
50767	1323688 6008 9799 15764 100.25 143 172 486.85000610352 734.71005249023 91987.5728302 50158501.147265
50766	1329696 6010 9799 15764 100.25 143 172 486.84704589844 785.82187652588 98324.559211731 57958366.794239
vector 50892  IntersectionExampleScenario.node[63].veinsmobility  posx  ETV
vector 50893  IntersectionExampleScenario.node[63].veinsmobility  posy  ETV
vector 50894  IntersectionExampleScenario.node[63].veinsmobility  speed  ETV
vector 50895  IntersectionExampleScenario.node[63].veinsmobility  acceleration  ETV
vector 50896  IntersectionExampleScenario.node[63].veinsmobility  co2emission  ETV
vector 50899  IntersectionExampleScenario.node[64].veinsmobility  posx  ETV
vector 50900  IntersectionExampleScenario.node[64].veinsmobility  posy  ETV
vector 50901  IntersectionExampleScenario.node[64].veinsmobility  speed  ETV
50812	1336339 5584 10151 15910 102.5 144.25 168 0.973 11.648172402475 541.04300865962 2940.9641274817
50811	1341923 5535 10151 15910 102.5 144.25 168 -4.5 2.5 41.057416915894 285.82683548396
50810	1347458 5693 10108 15910 102.25 144.25 169 5.6500000953674 15.932443618774 2267.7588653564 32184.803420531
50809	1353151 5936 10065 15910 102 144.25 170 486.85000610352 734.75202941895 90737.689178467 49367521.197765
50808	1359087 5929 10065 15910 102 144.25 170 486.8430480957 805.05782318115 98320.867897034 58887658.354609
vector 50902  IntersectionExampleScenario.node[64].veinsmobility  acceleration  ETV
vector 50903  IntersectionExampleScenario.node[64].veinsmobility  co2emission  ETV
vector 50906  IntersectionExampleScenario.node[65].veinsmobility  posx  ETV
vector 50907  IntersectionExampleScenario.node[65].veinsmobility  posy  ETV
50763	1365339 6253 9737 16386 99.75 148.25 195 0.973 11.648172402475 559.47131346 2929.3746964497
50762	1371592 5833 9737 16386 99.75 148.25 195 -7.8734493255615 4 38.511121749878 490.08125572882
50761	1377425 6083 9706 16386 99.5 148.25 196 0 15.64999961853 2098.0459983349 29725.229771311
50760	1383508 6865 9675 16386 99.25 148.25 197 212.90466308594 733.9766998291 91607.809432983 46146748.076015
50759	1390373 6883 9675 16386 99.25 148.25 197 486.85000610352 486.85000610352 95909.451202393 46693516.90327
vector 50908  IntersectionExampleScenario.node[65].veinsmobility  speed  ETV
vector 50909  IntersectionExampleScenario.node[65].veinsmobility  acceleration  ETV
vector 50910  IntersectionExampleScenario.node[65].veinsmobility  co2emission  ETV
vector 50913  IntersectionExampleScenario.node[66].veinsmobility  posx  ETV
vector 50914  IntersectionExampleScenario.node[66].veinsmobility  posy  ETV
vector 50915  IntersectionExampleScenario.node[66].veinsmobility  speed  ETV
50749	1397735 6700 9588 16591 98.5 150 207 0.973 11.353792220033 595.22736117535 2926.1234091874
50748	1404435 6236 9588 16591 98.5 150 207 -4.5 2.5000019073486 39.869146347046 494.911907641
50747	1410671 6737 9559 16591 98.25 150 208 0 15.670939445496 2219.4446909241 31103.668268504
50746	1417408 7266 9532 16591 98 150 209 184.17810058594 734.11898803711 93367.661956787 46083416.29817
50745	1424674 7290 9532 16591 98 150 209 486.85000610352 486.85000610352 101751.65127563 49537792.044585
vector 50916  IntersectionExampleScenario.node[66].veinsmobility  acceleration  ETV
vector 50917  IntersectionExampleScenario.node[66].veinsmobility  co2emission  ETV
vector 50920  IntersectionExampleScenario.node[67].veinsmobility  posx  ETV
vector 50921  IntersectionExampleScenario.node[67].veinsmobility  posy  ETV
50756	1432287 7099 9617 16870 98.75 152.5 216 0.973 11.810082123732 595.55638054559 2898.3663703198
50755	1439386 7176 9617 16870 98.75 152.5 216 -4.5 2.5 39.020376205444 416.95767705543
50754	1446562 7268 9588 16870 98.5 152.5 217 0 15.875 2276.4878120292 30845.49901598
50753	1453830 7584 9559 16870 98.25 152.5 218 159.76721191406 483.14999389648 86800.903869629 37046079.429803
50752	1461414 7602 9559 16870 98.25 152.5 218 486.85000610352 731.78979492188 114139.32170105 60770030.807393
vector 50922  IntersectionExampleScenario.node[67].veinsmobility  speed  ETV
vector 50923  IntersectionExampleScenario.node[67].veinsmobility  acceleration  ETV
vector 50924  IntersectionExampleScenario.node[67].veinsmobility  co2emission  ETV
50777	1469263 7160 9870 17059 100.75 154.25 215 0.973 11.54047740176 593.92934739699 2785.6209583036
50776	1476423 7063 9870 17059 100.75 154.25 215 -4.5 2.5 38.511121749878 399.1398629705
50775	1483486 7357 9835 17059 100.5 154.25 216 0 15.5 2345.0561745353 32054.788844348
50774	1490843 7575 9799 17059 100.25 154.25 217 153.57397460938 734.49272155762 94243.494247437 45980264.300875
50773	1498418 7590 9799 17059 100.25 154.25 217 486.85000610352 486.85000610352 105646.45132446 51433975.472129
vector 50927  IntersectionExampleScenario.node[68].veinsmobility  posx  ETV
vector 50928  IntersectionExampleScenario.node[68].veinsmobility  posy  ETV
vector 50929  IntersectionExampleScenario.node[68].veinsmobility  speed  ETV
vector 50930  IntersectionExampleScenario.node[68].veinsmobility  acceleration  ETV
vector 50931  IntersectionExampleScenario.node[68].veinsmobility  co2emission  ETV
vector 50934  IntersectionExampleScenario.node[69].veinsmobility  posx  ETV
vector 50935  IntersectionExampleScenario.node[69].veinsmobility  posy  ETV
vector 50936  IntersectionExampleScenario.node[69].veinsmobility  speed  ETV
vector 50937  IntersectionExampleScenario.node[69].veinsmobility  acceleration  ETV
vector 50938  IntersectionExampleScenario.node[69].veinsmobility  co2emission  ETV
50707	1506810 8953 7678 17521 83.5 158.5 301 0.973 11.450879080643 670.69608009449 3044.0791499386
50706	1515763 8875 7678 17521 83.5 158.5 301 -6.5862417221069 4 36.98334312439 558.64422308859
50705	1524638 9005 7647 17521 83.25 158.5 302 0 15.375 2209.9813911766 28614.085994936
50704	1533643 10446 7616 17521 83 158.5 303 237.32635498047 785.82187652588 156377.19483185 84962456.402184
50703	1544089 10461 7616 17521 83 158.5 303 483.14999389648 483.14999389648 146394.44815063 70730476.730458
vector 50941  IntersectionExampleScenario.node[70].veinsmobility  posx  ETV
vector 50942  IntersectionExampleScenario.node[70].veinsmobility  posy  ETV
vector 50943  IntersectionExampleScenario.node[70].veinsmobility  speed  ETV
vector 50944  IntersectionExampleScenario.node[70].veinsmobility  acceleration  ETV
vector 50945  IntersectionExampleScenario.node[70].veinsmobility  co2emission  ETV
vector 50948  IntersectionExampleScenario.node[71].veinsmobility  posx  ETV
vector 50949  IntersectionExampleScenario.node[71].veinsmobility  posy  ETV
50714	1555105 9734 7744 17674 84 159.75 304 0.973 11.540399415364 697.10261228165 3050.1046658936
50713	1564839 9689 7744 17674 84 159.75 304 -4.5 2.5 38.171613693237 569.62466294139
50712	1574528 9832 7711 17674 83.75 159.75 305 0 15.499891281128 2279.9174687732 29562.989458516
50711	1584360 10555 7678 17674 83.5 159.75 306 486.85000610352 809.56562805176 169529.55162048 96465842.514333
50710	1594915 10567 7678 17674 83.5 159.75 306 237.46594238281 483.14999389648 139676.88909912 64872673.475067
vector 50950  IntersectionExampleScenario.node[71].veinsmobility  speed  ETV
vector 50951  IntersectionExampleScenario.node[71].veinsmobility  acceleration  ETV
vector 50952  IntersectionExampleScenario.node[71].veinsmobility  co2emission  ETV
50805	1605729 7926 10065 18004 102 162.25 242 0.973 11.69688891247 641.31001251187 3291.9456620836
50804	1613655 7943 10065 18004 102 162.25 242 -3.8258285522461 2.5000009536743 39.699392318726 421.96989749399
50803	1621598 8136 10024 18004 101.75 162.25 243 0 15.717763900757 2190.0491678026 29784.802473278
50802	1629734 8515 9983 18004 101.5 162.25 244 486.81655883789 785.82187652588 134867.42752838 76468361.513187
50801	1638249 8534 9983 18004 101.5 162.25 244 235.43969726562 483.14999389648 109767.47390747 50444991.244569
vector 50955  IntersectionExampleScenario.node[72].veinsmobility  posx  ETV
vector 50956  IntersectionExampleScenario.node[72].veinsmobility  posy  ETV
vector 50957  IntersectionExampleScenario.node[72].veinsmobility  speed  ETV
vector 50958  IntersectionExampleScenario.node[72].veinsmobility  acceleration  ETV
vector 50959  IntersectionExampleScenario.node[72].veinsmobility  co2emission  ETV
vector 50962  IntersectionExampleScenario.node[73].veinsmobility  posx  ETV
vector 50963  IntersectionExampleScenario.node[73].veinsmobility  posy  ETV
50819	1647338 6660 11849 18308 112.5 164.5 209 0.973 11.200708441096 545.66049256195 2636.5480958524
50818	1653998 6910 11849 18308 112.5 164.5 209 -3.6375029087067 2.5000019073486 35.795072555542 319.26525495747
50817	1660908 7146 11808 18308 112.25 164.5 210 0 15.02499961853 2211.5270447135 28363.888241519
50816	1668054 7366 11766 18308 112 164.5 211 238.03021240234 785.82187652588 110399.72858429 62021038.992688
50815	1675420 7384 11766 18308 112 164.5 211 483.14999389648 483.14999389648 101944.64871216 49254556.403058
vector 50964  IntersectionExampleScenario.node[73].veinsmobility  speed  ETV
vector 50969  IntersectionExampleScenario.node[74].veinsmobility  posx  ETV
vector 50970  IntersectionExampleScenario.node[74].veinsmobility  posy  ETV
vector 50965  IntersectionExampleScenario.node[73].veinsmobility  acceleration  ETV
vector 50966  IntersectionExampleScenario.node[73].veinsmobility  co2emission  ETV
vector 50971  IntersectionExampleScenario.node[74].veinsmobility  speed  ETV
vector 50972  IntersectionExampleScenario.node[74].veinsmobility  acceleration  ETV
vector 50973  IntersectionExampleScenario.node[74].veinsmobility  co2emission  ETV
vector 50976  IntersectionExampleScenario.node[75].veinsmobility  posx  ETV
vector 50977  IntersectionExampleScenario.node[75].veinsmobility  posy  ETV
vector 50978  IntersectionExampleScenario.node[75].veinsmobility  speed  ETV
50840	1683684 6244 12877 18628 118.75 166.75 193 0.973 12.099024792222 585.76277364138 3051.2251391394
50839	1689928 6025 12877 18628 118.75 166.75 193 -9.2126970291138 4 41.396932601929 509.08073106974
50838	1695953 6056 12835 18628 118.5 166.75 194 0 16.27499961853 2175.1126408577 31596.318272479
50837	1702009 6761 12792 18628 118.25 166.75 195 238.16186523438 483.14999389648 86417.700500488 39247849.645129
50836	1708770 6796 12792 18628 118.25 166.75 195 184.17810058594 483.36395263672 80306.930328369 34944777.717034
vector 50979  IntersectionExampleScenario.node[75].veinsmobility  acceleration  ETV
vector 50980  IntersectionExampleScenario.node[75].veinsmobility  co2emission  ETV
vector 50983  IntersectionExampleScenario.node[76].veinsmobility  posx  ETV
vector 50984  IntersectionExampleScenario.node[76].veinsmobility  posy  ETV
vector 50985  IntersectionExampleScenario.node[76].veinsmobility  speed  ETV
vector 50986  IntersectionExampleScenario.node[76].veinsmobility  acceleration  ETV
vector 50987  IntersectionExampleScenario.node[76].veinsmobility  co2emission  ETV
50826	1716136 6840 12222 18812 114.75 168 214 0.973 11.200708441096 570.98017329331 2817.8028129947
50825	1722976 6384 12222 18812 114.75 168 214 -8.720287322998 4 35.625318527222 492.0139121876
50824	1729360 6624 12179 18812 114.5 168 215 0 15.02499961853 2183.0802621841 29581.600075393
50823	1735984 7494 12136 18812 114.25 168 216 486.85000610352 735.00680541992 113833.9135437 61075418.980137
50822	1743478 7555 12136 18812 114.25 168 216 486.63604736328 785.82187652588 119969.07355499 68619596.383717
50833	1751033 6720 12792 18849 118.25 168.25 201 0.973 11.54047740176 576.95542695936 2866.5009613563
50832	1757753 6485 12792 18849 118.25 168.25 201 -4.5 2.5000009536743 38.680875778198 435.04760307811
50831	1764238 6922 12751 18849 118 168.25 202 0 15.5 2254.222609425 31747.545187217
50830	1771160 7105 12710 18849 117.75 168.25 203 486.85000610352 486.85000610352 98830.551239014 48115654.473927
50829	1778265 7077 12710 18849 117.75 168.25 203 236.58624267578 795.46562957764 105972.89198303 59681877.73572
vector 50990  IntersectionExampleScenario.node[77].veinsmobility  posx  ETV
vector 50991  IntersectionExampleScenario.node[77].veinsmobility  posy  ETV
vector 50997  IntersectionExampleScenario.node[78].veinsmobility  posx  ETV
vector 50998  IntersectionExampleScenario.node[78].veinsmobility  posy  ETV
vector 50992  IntersectionExampleScenario.node[77].veinsmobility  speed  ETV
vector 50999  IntersectionExampleScenario.node[78].veinsmobility  speed  ETV
vector 50993  IntersectionExampleScenario.node[77].veinsmobility  acceleration  ETV
vector 50994  IntersectionExampleScenario.node[77].veinsmobility  co2emission  ETV
vector 51000  IntersectionExampleScenario.node[78].veinsmobility  acceleration  ETV
vector 51001  IntersectionExampleScenario.node[78].veinsmobility  co2emission  ETV
vector 51004  IntersectionExampleScenario.node[79].veinsmobility  posx  ETV
vector 51005  IntersectionExampleScenario.node[79].veinsmobility  posy  ETV
vector 51011  IntersectionExampleScenario.node[80].veinsmobility  posx  ETV
vector 51012  IntersectionExampleScenario.node[80].veinsmobility  posy  ETV
vector 51006  IntersectionExampleScenario.node[79].veinsmobility  speed  ETV
vector 51007  IntersectionExampleScenario.node[79].veinsmobility  acceleration  ETV
vector 51008  IntersectionExampleScenario.node[79].veinsmobility  co2emission  ETV
vector 51013  IntersectionExampleScenario.node[80].veinsmobility  speed  ETV
vector 51014  IntersectionExampleScenario.node[80].veinsmobility  acceleration  ETV
vector 51015  IntersectionExampleScenario.node[80].veinsmobility  co2emission  ETV
50861	1786946 5284 14648 19446 132.5 172 159 0.973 12.099024792222 583.09408151545 3670.9751927777
50860	1792230 5102 14648 19446 132.5 172 159 -3.6714687347412 2.5 41.227170944214 376.2498436891
50859	1797332 5290 14618 19446 132.25 172 160 5.6500000953674 16.27499961853 2180.1188998222 31244.249647795
50858	1802622 5622 14587 19446 132 172 161 486.85000610352 732.15557861328 86216.607452393 47058247.332664
50857	1808244 5627 14587 19446 132 172 161 486.85000610352 785.82187652588 92160.686103821 54465699.839507
vector 51018  IntersectionExampleScenario.node[81].veinsmobility  posx  ETV
vector 51019  IntersectionExampleScenario.node[81].veinsmobility  posy  ETV
vector 51020  IntersectionExampleScenario.node[81].veinsmobility  speed  ETV
vector 51021  IntersectionExampleScenario.node[81].veinsmobility  acceleration  ETV
vector 51022  IntersectionExampleScenario.node[81].veinsmobility  co2emission  ETV
vector 51025  IntersectionExampleScenario.node[82].veinsmobility  posx  ETV
vector 51026  IntersectionExampleScenario.node[82].veinsmobility  posy  ETV
vector 51027  IntersectionExampleScenario.node[82].veinsmobility  speed  ETV
vector 51028  IntersectionExampleScenario.node[82].veinsmobility  acceleration  ETV
vector 51029  IntersectionExampleScenario.node[82].veinsmobility  co2emission  ETV
vector 51032  IntersectionExampleScenario.node[83].veinsmobility  posx  ETV
vector 51033  IntersectionExampleScenario.node[83].veinsmobility  posy  ETV
vector 51034  IntersectionExampleScenario.node[83].veinsmobility  speed  ETV
vector 51035  IntersectionExampleScenario.node[83].veinsmobility  acceleration  ETV
vector 51036  IntersectionExampleScenario.node[83].veinsmobility  co2emission  ETV
50798	1815074 9838 10024 20956 101.75 181 318 0.973 10.916047529558 721.91639567761 2910.2176299525
50797	1824912 9464 10024 20956 101.75 181 318 -27.743667602539 4 39.323637008667 1263.4785615176
50796	1834376 9617 9983 20956 101.5 181 319 0 14.838832855225 2339.8861567806 29933.306457942
50795	1843993 11165 9944 20956 101.25 181 320 146.63800048828 483.36395263672 132608.6585083 58112198.522485
50794	1855158 11138 9944 20956 101.25 181 320 486.85000610352 735.56745910645 164481.47991943 85746178.369191
vector 51039  IntersectionExampleScenario.node[84].veinsmobility  posx  ETV
vector 51040  IntersectionExampleScenario.node[84].veinsmobility  posy  ETV
vector 51041  IntersectionExampleScenario.node[84].veinsmobility  speed  ETV
50847	1866528 6904 14152 21093 128.25 181.75 215 0.973 11.450879080643 566.00757937223 2778.0856847944
50846	1873432 6988 14152 21093 128.25 181.75 215 -3.9581205844879 2.5000009536743 37.492597579956 335.7349891805
50845	1880420 7326 14124 21093 128 181.75 216 0 15.375 2201.6011621896 28928.36343722
50844	1887746 7570 14095 21093 127.75 181.75 217 184.17810058594 486.96255493164 89502.341888428 38846983.312251
50843	1895316 7587 14095 21093 127.75 181.75 217 237.00372314453 486.85000610352 97144.583587646 44572357.577881
vector 51042  IntersectionExampleScenario.node[84].veinsmobility  acceleration  ETV
vector 51043  IntersectionExampleScenario.node[84].veinsmobility  co2emission  ETV
vector 51046  IntersectionExampleScenario.node[85].veinsmobility  posx  ETV
vector 51047  IntersectionExampleScenario.node[85].veinsmobility  posy  ETV
vector 51048  IntersectionExampleScenario.node[85].veinsmobility  speed  ETV
vector 51049  IntersectionExampleScenario.node[85].veinsmobility  acceleration  ETV
vector 51050  IntersectionExampleScenario.node[85].veinsmobility  co2emission  ETV
50854	1903473 7057 14210 21376 128.75 183.25 219 0.973 11.54047740176 599.9960286379 2926.9768643584
50853	1910530 7077 14210 21376 128.75 183.25 219 -4.5 2.5000019073486 38.850629806519 423.21518897804
50852	1917607 7523 14181 21376 128.5 183.25 220 1.0657194852829 15.5 2316.4184486866 30943.186704995
50851	1925130 7695 14152 21376 128.25 183.25 221 160.43438720703 734.68800354004 96846.36050415 47180808.26738
50850	1932825 7736 14152 21376 128.25 183.25 221 486.85000610352 486.85000610352 107593.85134888 52382067.185901
vector 51053  IntersectionExampleScenario.node[86].veinsmobility  posx  ETV
vector 51054  IntersectionExampleScenario.node[86].veinsmobility  posy  ETV
50882	1940715 5479 15645 21592 142 184.5 171 0.973 12.099024792222 541.52580999016 3110.9160801685
50881	1946194 5529 15645 21592 142 184.5 171 -2.5830001831055 2.5 41.396924972534 290.84693572955
50880	1951723 5783 15616 21592 141.75 184.5 172 4.5839037895203 16.27499961853 2081.2386493683 28000.202995134
50879	1957506 6031 15587 21592 141.5 184.5 173 217.29217529297 732.58702087402 78852.893203735 39335987.245533
50878	1963537 6055 15587 21592 141.5 184.5 173 486.85000610352 486.85000610352 84225.051055908 41004966.620638
vector 51055  IntersectionExampleScenario.node[86].veinsmobility  speed  ETV
vector 51056  IntersectionExampleScenario.node[86].veinsmobility  acceleration  ETV
vector 51057  IntersectionExampleScenario.node[86].veinsmobility  co2emission  ETV
50868	1969839 6329 15410 22015 139.75 187 190 0.973 11.332757814179 577.46367320852 2942.232376249
50867	1976168 6196 15410 22015 139.75 187 190 -4.5 2.5 38.341367721558 435.76105951494
50866	1982364 6522 15385 22015 139.5 187 191 4.1011443138123 15.738396644592 2216.2583508492 28483.368269648
50865	1988886 6687 15360 22015 139.25 187 192 184.17810058594 733.1866607666 83478.729934692 40859783.289562
50864	1995573 6720 15360 22015 139.25 187 192 486.85000610352 486.85000610352 93475.201171875 45508402.261055
vector 51060  IntersectionExampleScenario.node[87].veinsmobility  posx  ETV
vector 51061  IntersectionExampleScenario.node[87].veinsmobility  posy  ETV
50896	2002447 5989 15850 22397 143.75 189.5 184 0.94600815583079 12.353032912318 584.0441722884 3371.4209157457
50895	2008436 5591 15850 22397 143.75 189.5 184 -8.3547468185425 4 41.566686630249 523.56614665604
50894	2014027 5836 15821 22397 143.5 189.5 185 0 16.625 2211.588637352 32771.549793768
50893	2019863 6503 15792 22397 143.25 189.5 186 236.96490478516 785.82187652588 96402.676963806 53969272.103569
50892	2026366 6511 15792 22397 143.25 189.5 186 483.14999389648 483.14999389648 89865.898864746 43418708.488004
vector 51062  IntersectionExampleScenario.node[87].veinsmobility  speed  ETV
vector 51063  IntersectionExampleScenario.node[87].veinsmobility  acceleration  ETV
vector 51064  IntersectionExampleScenario.node[87].veinsmobility  co2emission  ETV
vector 51067  IntersectionExampleScenario.node[88].veinsmobility  posx  ETV
vector 51068  IntersectionExampleScenario.node[88].veinsmobility  posy  ETV
vector 51069  IntersectionExampleScenario.node[88].veinsmobility  speed  ETV
vector 51070  IntersectionExampleScenario.node[88].veinsmobility  acceleration  ETV
vector 51071  IntersectionExampleScenario.node[88].veinsmobility  co2emission  ETV
vector 51074  IntersectionExampleScenario.node[89].veinsmobility  posx  ETV
vector 51075  IntersectionExampleScenario.node[89].veinsmobility  posy  ETV
vector 51076  IntersectionExampleScenario.node[89].veinsmobility  speed  ETV
vector 51077  IntersectionExampleScenario.node[89].veinsmobility  acceleration  ETV
vector 51078  IntersectionExampleScenario.node[89].veinsmobility  co2emission  ETV
vector 51081  IntersectionExampleScenario.node[90].veinsmobility  posx  ETV
vector 51082  IntersectionExampleScenario.node[90].veinsmobility  posy  ETV
vector 51088  IntersectionExampleScenario.node[91].veinsmobility  posx  ETV
vector 51089  IntersectionExampleScenario.node[91].veinsmobility  posy  ETV
vector 51083  IntersectionExampleScenario.node[90].veinsmobility  speed  ETV
vector 51084  IntersectionExampleScenario.node[90].veinsmobility  acceleration  ETV
vector 51085  IntersectionExampleScenario.node[90].veinsmobility  co2emission  ETV
vector 51090  IntersectionExampleScenario.node[91].veinsmobility  speed  ETV
vector 51091  IntersectionExampleScenario.node[91].veinsmobility  acceleration  ETV
vector 51092  IntersectionExampleScenario.node[91].veinsmobility  co2emission  ETV
vector 51095  IntersectionExampleScenario.node[92].veinsmobility  posx  ETV
vector 51096  IntersectionExampleScenario.node[92].veinsmobility  posy  ETV
50931	2034882 5732 17326 23794 156.75 199.25 171 0.973 11.648172402475 541.04596353783 2887.6659410903
50930	2040614 5262 17326 23794 156.75 199.25 171 -7.0929417610168 4 38.341367721558 476.74127862336
50929	2045876 5644 17299 23794 156.5 199.25 172 0 15.64999961853 2177.7517205477 30631.668074955
50928	2051520 5991 17272 23794 156.25 199.25 173 236.95220947266 483.14999389648 75403.201263428 33816435.408242
50927	2057511 6030 17272 23794 156.25 199.25 173 184.17810058594 483.36395263672 69601.734313965 29799998.148275
vector 51097  IntersectionExampleScenario.node[92].veinsmobility  speed  ETV
50938	2063619 5637 17492 23831 158.25 199.5 166 0.973 11.648172402475 521.11711225535 2803.3275816899
50937	2069256 5213 17492 23831 158.25 199.5 166 -4.5 2.5 38.341367721558 305.01083835651
50936	2074469 5615 17463 23831 158 199.5 167 5.6500000953674 15.64999961853 2298.9534273148 32747.815027529
50935	2080084 5880 17434 23831 157.75 199.5 168 483.14999389648 483.14999389648 81169.198974609 39216897.989165
50934	2085964 5844 17434 23831 157.75 199.5 168 163.88433837891 733.30526733398 73792.953155518 37015403.507493
50889	2091808 7214 15706 23831 142.5 199.5 229 0.973 11.450879080643 593.56020488771 2861.4545171692
50888	2099022 6403 15706 23831 142.5 199.5 229 -6.998438835144 4 37.492597579956 469.58309252326
50887	2105425 6949 15676 23831 142.25 199.5 230 0 15.375 2215.8640432358 31072.668143386
50886	2112374 8084 15645 23831 142 199.5 231 486.85000610352 486.85000610352 112462.35140991 54752296.470331
50885	2120458 8071 15645 23831 142 199.5 231 235.61877441406 785.82187652588 118679.10575104 65207053.326352
vector 51098  IntersectionExampleScenario.node[92].veinsmobility  acceleration  ETV
vector 51099  IntersectionExampleScenario.node[92].veinsmobility  co2emission  ETV
50903	2128698 7576 15941 24050 144.5 201 227 0.973 11.36141391502 593.50527383722 2819.0296967307
50902	2136274 7295 15941 24050 144.5 201 227 -4.5 2.5 37.32285118103 424.53171797379
50901	2143569 7679 15910 24050 144.25 201 228 0 15.25 2258.839568899 30901.581075697
50900	2151248 8007 15879 24050 144 201 229 486.85000610352 733.7882232666 119844.69625854 63786961.057159
50899	2159255 7994 15879 24050 144 201 229 486.85000610352 803.92188262939 128272.37429047 74133598.667476
50952	2167249 5678 17740 24225 160.25 202.25 169 0.973 11.648172402475 560.33998087161 3049.795492508
50951	2172927 5464 17740 24225 160.25 202.25 169 -4.0902481079102 2.5 40.887662887573 318.3151119151
50950	2178391 5623 17707 24225 160 202.25 170 5.6500000953674 15.92613697052 2298.5159029961 32846.977666941
50949	2184014 5978 17674 24225 159.75 202.25 171 236.40075683594 483.14999389648 74693.833496094 33555220.867144
50948	2189992 5950 17674 24225 159.75 202.25 171 155.93121337891 483.14999389648 66348.831726074 27912966.836606
50959	2195942 5464 18140 24424 163.25 203.75 163 0.973 11.200708441096 493.75431682282 2699.8850213457
50958	2201406 5253 18140 24424 163.25 203.75 163 -3.1267051696777 2.5 35.455564498901 227.24738847773
50957	2206659 5523 18105 24424 163 203.75 164 5.6500000953674 15.02499961853 2222.3160228729 30648.581270393
50956	2212182 5776 18070 24424 162.75 203.75 165 486.85000610352 486.85000610352 80330.25100708 39108783.193094
50955	2217958 5747 18070 24424 162.75 203.75 165 235.19140625 785.82187652588 85857.608421326 49003137.591748
50980	2223705 5064 18665 24523 167 204.5 151 0.973 11.648172402475 476.30764104362 2681.2917485064
50979	2228769 4837 18665 24523 167 204.5 151 -3.4909057617188 2.5 38.511121749878 236.08067667357
50978	2233606 5035 18628 24523 166.75 204.5 152 5.6500000953674 15.64999961853 2103.3411369324 29999.540254833
50977	2238641 5350 18591 24523 166.5 204.5 153 483.14999389648 732.1042175293 82237.407180786 45129817.72784
50976	2243991 5344 18591 24523 166.5 204.5 153 208.55474853516 487.05871582031 62370.261016846 26853402.04836
50973	2249335 5414 18451 24586 165.5 205 159 0.973 11.54047740176 543.08809908242 2980.6098805052
50972	2254749 4874 18451 24586 165.5 205 159 -4.5 2.5 41.566686630249 287.15674621216
50971	2259623 5325 18415 24586 165.25 205 160 5.6500000953674 16.079504013062 2264.8445081711 33201.146202786
50970	2264948 5633 18378 24586 165 205 161 483.14999389648 483.14999389648 77787.149017334 37582860.57295
50969	2270581 5618 18378 24586 165 205 161 173.51885986328 734.62992858887 70229.819854736 35129175.529374
50987	2276199 5194 18812 24679 168 205.75 152 0.973 11.200708441096 473.39318213455 2343.854395432
50986	2281393 5062 18812 24679 168 205.75 152 -3.2591285705566 2.5 39.529638290405 181.58381966164
50985	2286455 5125 18775 24679 167.75 205.75 153 5.6500000953674 15.758738517761 2214.3046703339 32736.183170879
50984	2291580 5391 18738 24679 167.5 205.75 154 486.85000610352 486.85000610352 74974.900939941 36501530.980221
50983	2296971 5380 18738 24679 167.5 205.75 154 237.46618652344 785.82187652588 80430.861991882 46084115.073974
vector 51102  IntersectionExampleScenario.node[93].veinsmobility  posx  ETV
vector 51103  IntersectionExampleScenario.node[93].veinsmobility  posy  ETV
vector 51104  IntersectionExampleScenario.node[93].veinsmobility  speed  ETV
vector 51109  IntersectionExampleScenario.node[94].veinsmobility  posx  ETV
vector 51110  IntersectionExampleScenario.node[94].veinsmobility  posy  ETV
vector 51105  IntersectionExampleScenario.node[93].veinsmobility  acceleration  ETV
vector 51106  IntersectionExampleScenario.node[93].veinsmobility  co2emission  ETV
51015	2302906 5168 19281 25058 171 209 153 0.973 11.810082123732 524.34830285155 2972.3780098746
51014	2308074 4873 19281 25058 171 209 153 -4.5 2.5 41.396924972534 301.30814669398
51013	2312947 5057 19238 25058 170.75 209 154 5.6500000953674 16.018117904663 2152.676068306 31692.643299927
51012	2318004 5420 19195 25058 170.5 209 155 486.85000610352 731.61460876465 83194.547592163 45522720.343908
51011	2323424 5410 19195 25058 170.5 209 155 486.8376159668 779.48829650879 88408.84967041 52041723.111616
51001	2328834 5405 19076 25058 169.75 209 158 0.973 11.648172402475 474.07983617267 2464.1569458311
51000	2334239 5201 19076 25058 169.75 209 158 -3.2074890136719 2.5 38.171613693237 186.72726945876
50999	2339440 5328 19037 25058 169.5 209 159 5.6500000953674 15.64999961853 2271.7872419357 33090.713984572
50998	2344768 5600 18997 25058 169.25 209 160 483.14999389648 483.14999389648 77303.999023438 37349426.656348
50997	2350368 5586 18997 25058 169.25 209 160 170.42779541016 733.22444152832 70712.662139893 35706705.015274
vector 51111  IntersectionExampleScenario.node[94].veinsmobility  speed  ETV
vector 51112  IntersectionExampleScenario.node[94].veinsmobility  acceleration  ETV
vector 51113  IntersectionExampleScenario.node[94].veinsmobility  co2emission  ETV
vector 51116  IntersectionExampleScenario.node[95].veinsmobility  posx  ETV
vector 51117  IntersectionExampleScenario.node[95].veinsmobility  posy  ETV
vector 51118  IntersectionExampleScenario.node[95].veinsmobility  speed  ETV
vector 51119  IntersectionExampleScenario.node[95].veinsmobility  acceleration  ETV
vector 51120  IntersectionExampleScenario.node[95].veinsmobility  co2emission  ETV
50875	2356602 8616 15616 25405 141.75 211.75 281 0.973 11.90022389248 703.26209567289 3382.0953116022
50874	2365218 8157 15616 25405 141.75 211.75 281 -39.608131408691 4 40.038900375366 1994.9341697048
50873	2373375 8371 15587 25405 141.5 211.75 282 0 16 2280.4333705902 29955.540180222
50872	2381746 9882 15560 25405 141.25 211.75 283 166.078125 731.70051574707 125550.80358887 60498428.483575
50871	2391628 9907 15560 25405 141.25 211.75 283 486.85000610352 486.85000610352 137778.55172729 67077488.749367
vector 51123  IntersectionExampleScenario.node[96].veinsmobility  posx  ETV
vector 51124  IntersectionExampleScenario.node[96].veinsmobility  posy  ETV
vector 51125  IntersectionExampleScenario.node[96].veinsmobility  speed  ETV
vector 51126  IntersectionExampleScenario.node[96].veinsmobility  acceleration  ETV
vector 51127  IntersectionExampleScenario.node[96].veinsmobility  co2emission  ETV
vector 51130  IntersectionExampleScenario.node[97].veinsmobility  posx  ETV
vector 51131  IntersectionExampleScenario.node[97].veinsmobility  posy  ETV
vector 51132  IntersectionExampleScenario.node[97].veinsmobility  speed  ETV
50910	2402168 8047 16444 25811 148.75 214.75 265 0.973 11.092734276804 606.61800337801 2688.6522950634
50909	2410215 7849 16444 25811 148.75 214.75 265 -9.7752480506897 2.5 35.964826583862 493.18367968287
50908	2418064 8121 16415 25811 148.5 214.75 266 -0.084012389183044 14.873494148254 2211.6203963161 28548.626388804
50907	2426185 9296 16386 25811 148.25 214.75 267 184.17810058594 733.11894226074 121117.20199585 59283040.69351
50906	2435481 9347 16386 25811 148.25 214.75 267 486.85000610352 486.85000610352 129988.95162964 63285121.894279
vector 51133  IntersectionExampleScenario.node[97].veinsmobility  acceleration  ETV
vector 51134  IntersectionExampleScenario.node[97].veinsmobility  co2emission  ETV
50917	2444997 8635 16622 26009 150.25 216.25 265 0.973 11.093806525473 635.47046015861 2750.3168188798
50916	2453632 9123 16622 26009 150.25 216.25 265 -4.5 2.5 39.529638290405 388.50339979661
[...]
vector 56040  IntersectionExampleScenario.node[798].veinsmobility  acceleration  ETV
vector 56041  IntersectionExampleScenario.node[798].veinsmobility  co2emission  ETV
vector 56044  IntersectionExampleScenario.node[799].veinsmobility  posx  ETV
vector 56045  IntersectionExampleScenario.node[799].veinsmobility  posy  ETV
vector 56046  IntersectionExampleScenario.node[799].veinsmobility  speed  ETV
vector 56047  IntersectionExampleScenario.node[799].veinsmobility  acceleration  ETV
vector 56048  IntersectionExampleScenario.node[799].veinsmobility  co2emission  ETV
55873	27568702 7433 223624 232610 1736.25 1791 220 0.973 11.00486315618 607.95450539021 2790.0632388123
55872	27576135 7040 223624 232610 1736.25 1791 220 -4.5 2.5 40.038900375366 446.98463092638
55871	27583175 7232 223579 232610 1736 1791 221 0 15.689979553223 2282.426685214 32506.078836975
55870	27590407 8193 223535 232610 1735.75 1791 222 482.90625 806.11563110352 124347.50255585 71995716.041505
55869	27598600 8207 223535 232610 1735.75 1791 222 483.14999389648 732.03355407715 115403.45140076 61038797.843844
55866	27606807 7634 223363 232655 1734.75 1791.25 227 0.973 10.916047529558 567.36694730756 2587.4714295175
55865	27614441 7105 223363 232655 1734.75 1791.25 227 -9.4890689849854 4 34.437047958374 483.51358969351
55864	27621546 7396 223320 232655 1734.5 1791.25 228 0 14.625 2183.8005123138 29079.230302047
55863	27628942 8464 223277 232655 1734.25 1791.25 229 486.63604736328 785.82187652588 126629.91555786 72064434.651608
55862	27637406 8405 223277 232655 1734.25 1791.25 229 235.35296630859 483.14999389648 101825.39196777 46392265.658853
vector 56051  IntersectionExampleScenario.node[800].veinsmobility  posx  ETV
vector 56052  IntersectionExampleScenario.node[800].veinsmobility  posy  ETV
vector 56053  IntersectionExampleScenario.node[800].veinsmobility  speed  ETV
vector 56054  IntersectionExampleScenario.node[800].veinsmobility  acceleration  ETV
vector 56055  IntersectionExampleScenario.node[800].veinsmobility  co2emission  ETV
vector 56058  IntersectionExampleScenario.node[801].veinsmobility  posx  ETV
vector 56059  IntersectionExampleScenario.node[801].veinsmobility  posy  ETV
vector 56060  IntersectionExampleScenario.node[801].veinsmobility  speed  ETV
55894	27646452 6791 224898 233083 1743.5 1793.75 202 0.973 12.099024792222 579.15966322198 3024.7988653237
55893	27653243 7130 224898 233083 1743.5 1793.75 202 -3.9178419113159 2.5 40.54815864563 367.87459722907
55892	27660373 7028 224857 233083 1743.25 1793.75 203 0 16.27499961853 2177.9501663856 29439.990762009
55891	27667401 7538 224815 233083 1743 1793.75 204 486.81246948242 785.82187652588 114423.57717133 65999604.679159
55890	27674939 7542 224815 233083 1743 1793.75 204 238.75390625 483.14999389648 90715.743103027 41306161.334364
vector 56061  IntersectionExampleScenario.node[801].veinsmobility  acceleration  ETV
vector 56062  IntersectionExampleScenario.node[801].veinsmobility  co2emission  ETV
55915	27682652 5852 226776 233657 1755.25 1797 168 0.973 11.648172402475 544.37527376544 3180.4975036902
55914	27688504 5561 226776 233657 1755.25 1797 168 -3.0217056274414 2.5 38.341367721558 320.78581262636
55913	27694065 5944 226739 233657 1755 1797 169 5.6500000953674 15.64999961853 2181.9817409515 29648.176520838
55912	27700009 6277 226702 233657 1754.75 1797 170 486.67575073242 785.82187652588 97198.16960907 57321318.573077
55911	27706286 6285 226702 233657 1754.75 1797 170 237.32305908203 483.14999389648 73981.785430908 33137180.770658
vector 56065  IntersectionExampleScenario.node[802].veinsmobility  posx  ETV
vector 56066  IntersectionExampleScenario.node[802].veinsmobility  posy  ETV
vector 56067  IntersectionExampleScenario.node[802].veinsmobility  speed  ETV
vector 56068  IntersectionExampleScenario.node[802].veinsmobility  acceleration  ETV
vector 56069  IntersectionExampleScenario.node[802].veinsmobility  co2emission  ETV
55936	27712977 5727 227248 233877 1758.25 1798.25 161 0.973 12.251665921356 552.32067340195 3283.5368591782
55935	27718704 5692 227248 233877 1758.25 1798.25 161 -3.5854272842407 2.5 41.057416915894 404.63481768704
55934	27724396 5958 227209 233877 1758 1798.25 162 2.5144684314728 16.485530853271 2208.179723978 32494.497940419
55933	27730354 6031 227169 233877 1757.75 1798.25 163 483.14999389648 483.14999389648 78753.449005127 38049728.406154
55932	27736385 5998 227169 233877 1757.75 1798.25 163 184.17810058594 731.82153320312 73109.746826172 36780657.634546
vector 56072  IntersectionExampleScenario.node[803].veinsmobility  posx  ETV
vector 56073  IntersectionExampleScenario.node[803].veinsmobility  posy  ETV
vector 56074  IntersectionExampleScenario.node[803].veinsmobility  speed  ETV
vector 56075  IntersectionExampleScenario.node[803].veinsmobility  acceleration  ETV
vector 56076  IntersectionExampleScenario.node[803].veinsmobility  co2emission  ETV
55796	27742789 10443 221210 234191 1721.25 1800 316 0.973 10.085982162399 621.74808383053 2334.4610293161
55795	27753232 10747 221210 234191 1721.25 1800 316 -4.5 2.5 23.39999961853 587.09917673005
55794	27763979 10835 221173 234191 1721 1800 317 0 14.744826316833 1351.3435158171 12850.551915275
55793	27774814 11733 221136 234191 1720.75 1800 318 169.95465087891 483.14999389648 128285.46560669 54070245.0678
55792	27786547 11763 221136 234191 1720.75 1800 318 486.85000610352 512.39791870117 154988.98287964 75542277.438555
55803	27798310 10050 221325 234191 1722 1800 313 0.973 10.47384764672 650.56559636386 2809.8748714961
55802	27808360 9740 221325 234191 1722 1800 313 -15.780521392822 4 32.717519760132 963.01236040455
55801	27818100 10029 221286 234191 1721.75 1800 314 0 14.349595069885 1382.2451630197 14006.222810169
55800	27828129 11622 221247 234191 1721.5 1800 315 194.42419433594 483.36395263672 131589.71917725 56803100.430255
55799	27839751 11601 221247 234191 1721.5 1800 315 486.85000610352 544.95172119141 153951.18487549 75261878.024947
55810	27851352 9904 221551 234191 1723.5 1800 307 0.973 9.8673247602485 523.70071066768 1614.7346285363
55809	27861256 10487 221551 234191 1723.5 1800 307 -4.5 2.5 5.3999996185303 391.99469474974
55808	27871743 10439 221514 234191 1723.25 1800 308 0 14.59056186676 1301.9330269508 12422.789588898
55807	27882182 11349 221477 234191 1723 1800 309 158.75726318359 481.25970458984 121964.02856445 50366807.187611
55806	27893531 11430 221477 234191 1723 1800 309 486.85000610352 491.0491027832 150448.66674805 73251818.316332
55852	27904961 9130 222398 234191 1729 1800 285 0.973 10.756497587458 479.33145449227 1621.2202038367
55851	27914091 9430 222398 234191 1729 1800 285 -4.5 2.5 10.774717330933 408.77033575824
55850	27923521 9623 222355 234191 1728.75 1800 286 0 15.04176235199 1173.3557525612 12459.532056372
55849	27933144 10595 222312 234191 1728.5 1800 287 173.07073974609 464.17022705078 113298.28662109 46415062.959618
55848	27943739 10618 222312 234191 1728.5 1800 287 486.85000610352 486.85003662109 139725.95178223 68025580.492854
55901	27954357 6835 225886 234191 1749.5 1800 203 0.973 10.756497587458 380.88996306328 1413.6330444178
55900	27961192 7450 225886 234191 1749.5 1800 203 -4.5 2.5 -5.1901798248291 349.12699380721
55899	27968642 7531 225843 234191 1749.25 1800 204 0 14.39999961853 1060.8255288415 10920.67871092
55898	27976173 7551 225800 234191 1749 1800 205 184.17810058594 448.1110534668 77950.796722412 30936695.189806
55897	27983724 7583 225800 234191 1749 1800 205 486.85000610352 486.85003662109 99804.251312256 48589700.390243
55908	27991307 6187 226443 234191 1753 1800 189 0.973 10.756497587458 372.13723290924 1453.835419284
55907	27997494 6615 226443 234191 1753 1800 189 -4.5 2.5 -16.158363342285 418.4131640232
55906	28004109 6659 226404 234191 1752.75 1800 190 0 15.249316215515 1051.9064104855 11299.021549654
55905	28010768 7034 226365 234191 1752.5 1800 191 174.53436279297 437.6091003418 70380.032043457 27207068.654039
55904	28017802 7066 226365 234191 1752.5 1800 191 486.85000610352 486.85003662109 92988.352233887 45271380.372635
55922	28024868 5625 226854 234191 1755.75 1800 178 0.973 11.648172402475 344.2515327515 1531.8715542616
55921	28030493 5837 226854 234191 1755.75 1800 178 -4.5 4 -19.970733642578 403.89079509268
55920	28036330 5990 226815 234191 1755.5 1800 179 0 15.64999961853 1056.4525072575 11508.73742962
55919	28042320 6485 226776 234191 1755.25 1800 180 165.1328125 429.40731811523 64470.989318848 24369406.252152
55918	28048805 6660 226776 234191 1755.25 1800 180 486.85000610352 486.85000610352 87633.001098633 42664127.119739
55929	28055465 6249 226935 234191 1756.25 1800 176 0.973 10.916047529558 514.50855946965 2490.81866383
55928	28061714 5796 226935 234191 1756.25 1800 176 -7.1268091201782 4 34.437047958374 443.47202354607
55927	28067510 6210 226895 234191 1756 1800 177 0 14.625 2168.3029682636 28841.879083648
55926	28073720 6526 226854 234191 1755.75 1800 178 486.85000610352 731.08215332031 95227.458618164 51926249.786934
55925	28080246 6576 226854 234191 1755.75 1800 178 486.63604736328 785.82187652588 101227.52459717 59411819.272049
55943	28086822 5198 227369 234191 1759 1800 165 0.973 10.827565469168 353.48060250539 1638.2812447801
55942	28092020 4917 227369 234191 1759 1800 165 -17.501167297363 2.5 -22.60000038147 623.86293267142
55941	28096937 5074 227328 234191 1758.75 1800 166 0 14.70973110199 1181.7427425385 15925.193130395
55940	28102011 6168 227287 234191 1758.5 1800 167 498.39999389648 793.78281402588 97283.735641479 58416970.312386
55939	28108179 6178 227287 234191 1758.5 1800 167 483.14999389648 483.14999389648 80686.048980713 38983464.072563
55950	28114357 5129 228001 234191 1763 1800 149 0.973 10.756497587458 333.48844946529 1378.0966858228
55949	28119486 5572 228001 234191 1763 1800 149 -4.5 2.5 -22.548072535545 276.53388699538
55948	28125058 5491 227962 234191 1762.75 1800 150 0 15.580228805542 1163.4952994343 16074.336632539
55947	28130549 5561 227922 234191 1762.5 1800 151 504.8186340332 796.00234985352 89461.750106812 54567716.446553
55946	28136110 5586 227922 234191 1762.5 1800 151 483.14999389648 483.14999389648 72955.649078369 35248521.406928
55957	28141696 4869 228453 234191 1766 1800 137 0.973 11.648172402475 474.11857511001 2713.0737585972
55956	28146565 4791 228453 234191 1766 1800 137 -3.3996448516846 2.5 39.700307846069 282.56345758332
55955	28151356 4800 228414 234191 1765.75 1800 138 5.6500000953674 15.725955963135 1857.95094347 26387.9856946
55954	28156156 5139 228376 234191 1765.5 1800 139 486.85000610352 651.40968322754 71369.822357178 36945564.388712
55953	28161295 5138 228376 234191 1765.5 1800 139 486.85000610352 785.82187652588 81340.20514679 49154049.46775
55964	28166433 4889 228492 234191 1766.25 1800 136 0.973 11.20543982901 445.31696637477 2459.5755013181
55963	28171322 4581 228492 234191 1766.25 1800 136 -4.1939392089844 2.5 36.134840011597 250.15287331795
55962	28175903 4803 228453 234191 1766 1800 137 5.6500000953674 15.031632423401 1812.3609886169 24728.122315706
55961	28180706 5095 228414 234191 1765.75 1800 138 359.94973754883 486.85000610352 64860.289916992 30640171.506037
55960	28185801 5091 228414 234191 1765.75 1800 138 482.93423461914 810.23281097412 83758.36315918 52672718.64201
55971	28190892 4544 228877 234191 1768.75 1800 126 0.973 11.54047740176 400.33800718639 2198.6166079947
55970	28195436 4100 228877 234191 1768.75 1800 126 -2.906135559082 2.5 37.323732376099 179.22973064585
55969	28199536 4464 228838 234191 1768.5 1800 127 5.6500000953674 15.5 1767.1682739258 25143.320599101
55968	28204000 4736 228799 234191 1768.25 1800 128 483.14999389648 483.14999389648 61843.19921875 29879541.325078
55967	28208736 4665 228799 234191 1768.25 1800 128 184.17810058594 620.87237548828 50540.855453491 22155111.683617
55978	28213401 4218 228959 234191 1769.25 1800 124 0.973 10.837181273833 294.39071919867 1235.9599540896
55977	28217619 3920 228959 234191 1769.25 1800 124 -45.790618896484 2.5 -22.60000038147 2220.0802122531
55976	28221539 4194 228918 234191 1769 1800 125 0 14.51385307312 1238.7603034973 16601.173256916
55975	28225733 4661 228877 234191 1768.75 1800 126 483.14999389648 483.14999389648 60876.899230957 29412673.491874
55974	28230394 4633 228877 234191 1768.75 1800 126 160.43438720703 471.60000610352 43110.895355225 16258717.814562
55985	28235027 3820 229086 234191 1770 1800 121 0.973 11.648172402475 274.56223892833 1419.4803205421
55984	28238847 4382 229086 234191 1770 1800 121 -3.8456518650055 2.5 -21.75031542778 189.61820117425
55983	28243229 4490 229043 234191 1769.75 1800 122 0 15.64999961853 1091.3733971827 13427.876331537
55982	28247719 4540 229000 234191 1769.5 1800 123 512.70709228516 785.82187652588 75390.850654602 47271039.391789
55981	28252259 4550 229000 234191 1769.5 1800 123 483.14999389648 483.14999389648 59427.449249268 28712371.742067
55992	28256809 3824 229419 234191 1772 1800 113 0.973 10.756497587458 273.57682962011 1229.9324279121
55991	28260633 3937 229419 234191 1772 1800 113 -10.192230224609 2.5 -22.60000038147 387.70968181771
55990	28264570 3910 229376 234191 1771.75 1800 114 0 14.39999961853 1176.6688079834 15580.945457092
55989	28268480 4254 229333 234191 1771.5 1800 115 486.85000610352 486.85000610352 55987.750701904 27257636.770944
55988	28272734 4241 229333 234191 1771.5 1800 115 498.39999389648 793.39344024658 71524.479568481 45679566.468272
55999	28276975 3415 229764 234191 1774 1800 105 0.973 11.648172402475 258.73511269176 1385.3111134346
55998	28280390 3866 229764 234191 1774 1800 105 -4.5 2.5 -12.438542366028 205.54080486091
55997	28284256 3901 229721 234191 1773.75 1800 106 2.5403645038605 15.64999961853 1056.0831964016 13070.299358776
55996	28288157 3949 229677 234191 1773.5 1800 107 528.50061035156 792.02188110352 68098.873939514 44175024.087508
55995	28292106 3958 229677 234191 1773.5 1800 107 483.14999389648 483.14999389648 51697.049346924 24977429.076432
56006	28296064 2593 230703 234191 1779.75 1800 82 0.973 11.444878595519 217.97552547998 1242.3385246446
56005	28298657 2974 230703 234191 1779.75 1800 82 -3.9321155548096 2.5 -1.6275901794434 148.1702822306
56004	28301631 3052 230662 234191 1779.5 1800 83 5.2431025505066 15.36662197113 979.65332889557 12440.696905492
56003	28304683 3102 230621 234191 1779.25 1800 84 542.36352539062 785.82187652588 55365.507095337 37023288.778916
56002	28307785 3108 230621 234191 1779.25 1800 84 483.14999389648 483.14999389648 40584.599487305 19608448.994582
56013	28310893 2767 230872 234191 1780.75 1800 78 0.973 11.648172402475 260.43727662452 1484.4823007164
56012	28313660 2677 230872 234191 1780.75 1800 78 -4.5 2.5 11.962747573853 236.39734755965
56011	28316337 2906 230828 234191 1780.5 1800 79 5.6500000953674 15.64999961853 1006.272482872 13594.677177373
56010	28319243 2951 230785 234191 1780.25 1800 80 559.31973266602 807.99687957764 54621.422386169 37813208.432411
56009	28322194 2960 230785 234191 1780.25 1800 80 483.14999389648 483.14999389648 38651.999511719 18674713.328174
56020	28325154 2631 230915 234191 1781 1800 77 0.973 11.648172402475 240.31597065894 1395.0373465553
56019	28327785 2813 230915 234191 1781 1800 77 -2.6025505065918 2.5 2.4622898101807 168.95970259426
56018	28330598 2862 230872 234191 1780.75 1800 78 5.6500000953674 15.64999961853 1014.1362891197 14009.02110504
56017	28333460 2922 230828 234191 1780.5 1800 79 486.85000610352 486.85000610352 38461.150482178 18724811.346996
56016	28336382 2909 230828 234191 1780.5 1800 79 534.31033325195 785.82187652588 52203.054710388 35025642.507095
56027	28339291 2354 231378 234191 1783.75 1800 66 0.973 11.648172402475 227.76718402273 1374.631674376
56026	28341645 2413 231378 234191 1783.75 1800 66 -4.5 2.5 16.142629623413 182.17491127469
56025	28344058 2461 231337 234191 1783.5 1800 67 5.6500000953674 15.64999961853 920.80244445801 13103.141548939
56024	28346519 2516 231296 234191 1783.25 1800 68 486.85000610352 486.85000610352 33105.800415039 16117559.134124
56023	28349035 2506 231296 234191 1783.25 1800 68 572.96038818359 800.04531860352 47265.983200073 33199197.245198
56034	28351541 1948 231833 234191 1786.5 1800 55 0.973 11.200708441096 201.31253325709 1230.3986196738
56033	28353489 1927 231833 234191 1786.5 1800 55 -2.2952842712402 2.5 22.284776687622 127.29516896654
56032	28355416 2058 231790 234191 1786.25 1800 56 5.6500000953674 15.02499961853 742.29303455353 10210.472563044
56031	28357474 2085 231747 234191 1786 1800 57 184.17810058594 366.16912841797 15256.191192627 4273384.4763643
56030	28359559 2107 231747 234191 1786 1800 57 486.85000610352 486.85000610352 27750.4503479 13510306.921251
56041	28361666 1511 232389 234191 1789.75 1800 42 0.973 10.554543085714 180.16380162168 1178.0926226281
56040	28363177 1424 232389 234191 1789.75 1800 42 -2.4779510498047 2.5 35.752252578735 102.77377947102
56039	28364601 1587 232346 234191 1789.5 1800 43 5.6500000953674 15.449248313904 510.95566940308 6613.331719712
56038	28366188 1612 232303 234191 1789.25 1800 44 172.9296875 295.91333007812 9817.6584472656 2254665.3503794
56037	28367800 1628 232303 234191 1789.25 1800 44 486.85000610352 486.85000610352 21421.400268555 10429008.851492
56048	28369428 1381 232565 234191 1790.75 1800 38 0.973 11.200708441096 178.07232312632 1203.5052149291
56047	28370809 1266 232565 234191 1790.75 1800 38 -4.128963470459 2.5 33.172582626343 116.39457126972
56046	28372075 1431 232520 234191 1790.5 1800 39 5.6500000953674 15.793916702271 521.11295318604 7347.6876744604
56045	28373506 1471 232475 234191 1790.25 1800 40 202.01794433594 327.87902832031 10236.476074219 2682988.7719797
56044	28374977 1480 232475 234191 1790.25 1800 40 486.85000610352 486.85000610352 19474.000244141 9480917.1377197
56055	28376457 1085 232909 234191 1792.75 1800 30 0.973 10.926387409518 141.94638147789 995.53022761566
56054	28377542 995 232909 234191 1792.75 1800 30 -0.4227409362793 2.5 34.29741859436 87.014378383396
56053	28378537 1143 232866 234191 1792.5 1800 31 5.6500000953674 14.639561653137 373.84753513336 4756.1023827613
56052	28379680 1183 232823 234191 1792.25 1800 32 163.61975097656 252.36889648438 6436.083984375 1319659.9661757
56051	28380863 1184 232823 234191 1792.25 1800 32 486.85000610352 486.85000610352 15579.200195312 7584733.7101758
56062	28382047 910 233128 234191 1794 1800 25 0.973 11.648172402475 148.54183861342 1212.8006200731
56061	28382957 765 233128 234191 1794 1800 25 -0.41465759277344 2.5 38.465898513794 100.39078620055
56060	28383722 951 233083 234191 1793.75 1800 26 5.6500000953674 15.64999961853 319.31863021851 4211.8762705505
56059	28384673 997 233038 234191 1793.5 1800 27 711.12030029297 785.82187652588 20395.230827332 15421183.046125
56058	28385670 998 233038 234191 1793.5 1800 27 483.14999389648 483.14999389648 13045.049835205 6302715.7482587
56069	28386668 329 233833 234191 1798 1800 9 5.2162187258585 8.5795037135332 62.00095089838 437.72442123158
56068	28386997 235 233833 234191 1798 1800 9 2.4999980926514 2.5 22.499998092651 56.24999046326
56067	28387232 366 233788 234191 1797.75 1800 10 5.6500000953674 11.27499961853 84.624998092651 748.36558556557
56066	28387598 403 233743 234191 1797.5 1800 11 176.02111816406 193.65551757812 2015.0292358398 369498.4719894
56065	28388001 406 233743 234191 1797.5 1800 11 486.85000610352 486.85000610352 5355.3500671387 2607252.2128729
56076	28388407 183 234010 234191 1799 1800 5 5.2162187258585 6.8826618500064 30.239051553249 184.61558649684
56075	28388590 135 234010 234191 1799 1800 5 2.4999980926514 2.5 12.499998092651 31.24999046326
56074	28388725 221 233965 234191 1798.75 1800 6 5.6500000953674 8.7749996185303 43.27499961853 318.95686711311
56073	28388946 258 233920 234191 1798.5 1800 7 777.58750915527 785.82187652588 5477.6125335693 4286380.3077755
56072	28389204 258 233920 234191 1798.5 1800 7 483.14999389648 483.14999389648 3382.0499572754 1634037.4162152
50447	28389462 642 0 234190 0 1800 31 0 36 704 17324
50448	28390104 659 0 234190 0 1800 31 0 247 3685 604099
