file 29200722 1591463574                                        
version 2
run nodebug-23-20200606-13:08:11-21956
attr configname nodebug
attr datetime 20200606-13:08:11
attr experiment nodebug
attr inifile omnetpp.ini
attr iterationvars ""
attr iterationvars2 $repetition=23
attr measurement ""
attr network "\"org.car2x.veins.modules.application.ExtTraCIScenarioManagerLaunchd.IntersectionExampleScenario\""
attr processid 21956
attr repetition 23
attr replication #23
attr resultdir results
attr runnumber 23
attr seedset 23
param **.coreDebug false
param **.debug false
param *.**.nic.mac1609_4.bitrate 18Mbps
param *.**.nic.mac1609_4.txPower 20mW
param *.**.nic.mac1609_4.useServiceChannel false
param *.**.nic.phy80211p.analogueModels "xmldoc(\"config.xml\")"
param *.**.nic.phy80211p.decider "xmldoc(\"config.xml\")"
param *.**.nic.phy80211p.sensitivity -89dBm
param *.**.nic.phy80211p.thermalNoise -110dBm
param *.**.nic.phy80211p.usePropagationDelay true
param *.**.nic.phy80211p.useThermalNoise true
param *.annotations.draw false
param *.connectionManager.alpha 2.0
param *.connectionManager.carrierFrequency "5.890e9 Hz"
param *.connectionManager.pMax 20mW
param *.connectionManager.sat -89dBm
param *.connectionManager.sendDirect true
param *.manager.autoShutdown true
param *.manager.host "\"localhost\""
param *.manager.launchConfig "xmldoc(\"paramics.launchd.xml\")"
param *.manager.margin 25
param *.manager.moduleDisplayString "\"\""
param *.manager.moduleName "\"node\""
param *.manager.moduleType "\"org.car2x.veins.nodes.Car\""
param *.manager.port 9999
param *.manager.updateInterval 250ms
param *.node[*0].veinsmobility.accidentCount 0
param *.node[*0].veinsmobility.accidentDuration 30s
param *.node[*0].veinsmobility.accidentStart 75s
param *.node[*].appl.LiderSelectZoneRadio 55.0
param *.node[*].appl.ShareDataZoneRadio 110.0
param *.node[*].appl.TiempoSemaforo 30.0
param *.node[*].appl.beaconInterval 1s
param *.node[*].appl.beaconPriority 3
param *.node[*].appl.dataOnSch false
param *.node[*].appl.dataPriority 2
param *.node[*].appl.debug false
param *.node[*].appl.headerLength "256 bit"
param *.node[*].appl.maxOffset 0.005s
param *.node[*].appl.sendBeacons false
param *.node[*].appl.sendData true
param *.node[*].applType "\"Dummy\""
param *.node[*].mobilityType "\"TraCIMobility\""
param *.node[*].mobilityType.debug true
param *.node[*].veinsmobility.x 0
param *.node[*].veinsmobility.y 0
param *.node[*].veinsmobility.z 1.895
param *.node[*].veinsmobilityType "\"org.car2x.veins.modules.mobility.traci.TraCIMobility\""
param *.node[*].veinsmobilityType.debug true
param *.playgroundSizeX 8500m
param *.playgroundSizeY 8500m
param *.playgroundSizeZ 50m
param *.world.use2D false
param *.world.useTorus false

vector 56081  IntersectionExampleScenario.manager  vehiclesinsim  ETV
attr type  int
vector 56082  IntersectionExampleScenario.manager  realtime  ETV
attr type  int
attr unit  s
vector 56085  IntersectionExampleScenario.node[0].veinsmobility  posx  ETV
vector 56086  IntersectionExampleScenario.node[0].veinsmobility  posy  ETV
vector 56087  IntersectionExampleScenario.node[0].veinsmobility  speed  ETV
vector 56092  IntersectionExampleScenario.node[1].veinsmobility  posx  ETV
vector 56093  IntersectionExampleScenario.node[1].veinsmobility  posy  ETV
vector 56088  IntersectionExampleScenario.node[0].veinsmobility  acceleration  ETV
vector 56089  IntersectionExampleScenario.node[0].veinsmobility  co2emission  ETV
vector 56094  IntersectionExampleScenario.node[1].veinsmobility  speed  ETV
vector 56095  IntersectionExampleScenario.node[1].veinsmobility  acceleration  ETV
vector 56096  IntersectionExampleScenario.node[1].veinsmobility  co2emission  ETV
vector 56099  IntersectionExampleScenario.node[2].veinsmobility  posx  ETV
vector 56100  IntersectionExampleScenario.node[2].veinsmobility  posy  ETV
vector 56101  IntersectionExampleScenario.node[2].veinsmobility  speed  ETV
vector 56102  IntersectionExampleScenario.node[2].veinsmobility  acceleration  ETV
vector 56103  IntersectionExampleScenario.node[2].veinsmobility  co2emission  ETV
vector 56106  IntersectionExampleScenario.node[3].veinsmobility  posx  ETV
vector 56107  IntersectionExampleScenario.node[3].veinsmobility  posy  ETV
vector 56108  IntersectionExampleScenario.node[3].veinsmobility  speed  ETV
vector 56109  IntersectionExampleScenario.node[3].veinsmobility  acceleration  ETV
vector 56110  IntersectionExampleScenario.node[3].veinsmobility  co2emission  ETV
vector 56113  IntersectionExampleScenario.node[4].veinsmobility  posx  ETV
vector 56114  IntersectionExampleScenario.node[4].veinsmobility  posy  ETV
vector 56115  IntersectionExampleScenario.node[4].veinsmobility  speed  ETV
vector 56116  IntersectionExampleScenario.node[4].veinsmobility  acceleration  ETV
vector 56117  IntersectionExampleScenario.node[4].veinsmobility  co2emission  ETV
vector 56120  IntersectionExampleScenario.node[5].veinsmobility  posx  ETV
vector 56121  IntersectionExampleScenario.node[5].veinsmobility  posy  ETV
vector 56122  IntersectionExampleScenario.node[5].veinsmobility  speed  ETV
vector 56123  IntersectionExampleScenario.node[5].veinsmobility  acceleration  ETV
vector 56124  IntersectionExampleScenario.node[5].veinsmobility  co2emission  ETV
vector 56127  IntersectionExampleScenario.node[6].veinsmobility  posx  ETV
vector 56128  IntersectionExampleScenario.node[6].veinsmobility  posy  ETV
vector 56134  IntersectionExampleScenario.node[7].veinsmobility  posx  ETV
vector 56135  IntersectionExampleScenario.node[7].veinsmobility  posy  ETV
vector 56129  IntersectionExampleScenario.node[6].veinsmobility  speed  ETV
vector 56130  IntersectionExampleScenario.node[6].veinsmobility  acceleration  ETV
vector 56131  IntersectionExampleScenario.node[6].veinsmobility  co2emission  ETV
vector 56136  IntersectionExampleScenario.node[7].veinsmobility  speed  ETV
vector 56137  IntersectionExampleScenario.node[7].veinsmobility  acceleration  ETV
vector 56138  IntersectionExampleScenario.node[7].veinsmobility  co2emission  ETV
vector 56141  IntersectionExampleScenario.node[8].veinsmobility  posx  ETV
vector 56142  IntersectionExampleScenario.node[8].veinsmobility  posy  ETV
vector 56148  IntersectionExampleScenario.node[9].veinsmobility  posx  ETV
vector 56149  IntersectionExampleScenario.node[9].veinsmobility  posy  ETV
vector 56143  IntersectionExampleScenario.node[8].veinsmobility  speed  ETV
vector 56144  IntersectionExampleScenario.node[8].veinsmobility  acceleration  ETV
vector 56145  IntersectionExampleScenario.node[8].veinsmobility  co2emission  ETV
vector 56150  IntersectionExampleScenario.node[9].veinsmobility  speed  ETV
vector 56151  IntersectionExampleScenario.node[9].veinsmobility  acceleration  ETV
vector 56152  IntersectionExampleScenario.node[9].veinsmobility  co2emission  ETV
vector 56155  IntersectionExampleScenario.node[10].veinsmobility  posx  ETV
vector 56156  IntersectionExampleScenario.node[10].veinsmobility  posy  ETV
vector 56157  IntersectionExampleScenario.node[10].veinsmobility  speed  ETV
vector 56158  IntersectionExampleScenario.node[10].veinsmobility  acceleration  ETV
vector 56159  IntersectionExampleScenario.node[10].veinsmobility  co2emission  ETV
vector 56162  IntersectionExampleScenario.node[11].veinsmobility  posx  ETV
vector 56163  IntersectionExampleScenario.node[11].veinsmobility  posy  ETV
vector 56164  IntersectionExampleScenario.node[11].veinsmobility  speed  ETV
vector 56165  IntersectionExampleScenario.node[11].veinsmobility  acceleration  ETV
vector 56166  IntersectionExampleScenario.node[11].veinsmobility  co2emission  ETV
vector 56169  IntersectionExampleScenario.node[12].veinsmobility  posx  ETV
vector 56170  IntersectionExampleScenario.node[12].veinsmobility  posy  ETV
vector 56171  IntersectionExampleScenario.node[12].veinsmobility  speed  ETV
vector 56172  IntersectionExampleScenario.node[12].veinsmobility  acceleration  ETV
vector 56173  IntersectionExampleScenario.node[12].veinsmobility  co2emission  ETV
vector 56176  IntersectionExampleScenario.node[13].veinsmobility  posx  ETV
vector 56177  IntersectionExampleScenario.node[13].veinsmobility  posy  ETV
vector 56178  IntersectionExampleScenario.node[13].veinsmobility  speed  ETV
vector 56179  IntersectionExampleScenario.node[13].veinsmobility  acceleration  ETV
vector 56180  IntersectionExampleScenario.node[13].veinsmobility  co2emission  ETV
vector 56183  IntersectionExampleScenario.node[14].veinsmobility  posx  ETV
vector 56184  IntersectionExampleScenario.node[14].veinsmobility  posy  ETV
vector 56185  IntersectionExampleScenario.node[14].veinsmobility  speed  ETV
vector 56186  IntersectionExampleScenario.node[14].veinsmobility  acceleration  ETV
vector 56187  IntersectionExampleScenario.node[14].veinsmobility  co2emission  ETV
vector 56190  IntersectionExampleScenario.node[15].veinsmobility  posx  ETV
vector 56191  IntersectionExampleScenario.node[15].veinsmobility  posy  ETV
vector 56197  IntersectionExampleScenario.node[16].veinsmobility  posx  ETV
vector 56198  IntersectionExampleScenario.node[16].veinsmobility  posy  ETV
vector 56192  IntersectionExampleScenario.node[15].veinsmobility  speed  ETV
vector 56193  IntersectionExampleScenario.node[15].veinsmobility  acceleration  ETV
vector 56194  IntersectionExampleScenario.node[15].veinsmobility  co2emission  ETV
vector 56199  IntersectionExampleScenario.node[16].veinsmobility  speed  ETV
vector 56200  IntersectionExampleScenario.node[16].veinsmobility  acceleration  ETV
vector 56201  IntersectionExampleScenario.node[16].veinsmobility  co2emission  ETV
vector 56204  IntersectionExampleScenario.node[17].veinsmobility  posx  ETV
vector 56205  IntersectionExampleScenario.node[17].veinsmobility  posy  ETV
vector 56206  IntersectionExampleScenario.node[17].veinsmobility  speed  ETV
vector 56211  IntersectionExampleScenario.node[18].veinsmobility  posx  ETV
vector 56212  IntersectionExampleScenario.node[18].veinsmobility  posy  ETV
vector 56207  IntersectionExampleScenario.node[17].veinsmobility  acceleration  ETV
vector 56208  IntersectionExampleScenario.node[17].veinsmobility  co2emission  ETV
vector 56213  IntersectionExampleScenario.node[18].veinsmobility  speed  ETV
vector 56214  IntersectionExampleScenario.node[18].veinsmobility  acceleration  ETV
vector 56215  IntersectionExampleScenario.node[18].veinsmobility  co2emission  ETV
vector 56218  IntersectionExampleScenario.node[19].veinsmobility  posx  ETV
vector 56219  IntersectionExampleScenario.node[19].veinsmobility  posy  ETV
vector 56220  IntersectionExampleScenario.node[19].veinsmobility  speed  ETV
vector 56221  IntersectionExampleScenario.node[19].veinsmobility  acceleration  ETV
vector 56222  IntersectionExampleScenario.node[19].veinsmobility  co2emission  ETV
vector 56225  IntersectionExampleScenario.node[20].veinsmobility  posx  ETV
vector 56226  IntersectionExampleScenario.node[20].veinsmobility  posy  ETV
vector 56227  IntersectionExampleScenario.node[20].veinsmobility  speed  ETV
vector 56228  IntersectionExampleScenario.node[20].veinsmobility  acceleration  ETV
vector 56229  IntersectionExampleScenario.node[20].veinsmobility  co2emission  ETV
vector 56232  IntersectionExampleScenario.node[21].veinsmobility  posx  ETV
vector 56233  IntersectionExampleScenario.node[21].veinsmobility  posy  ETV
vector 56239  IntersectionExampleScenario.node[22].veinsmobility  posx  ETV
vector 56240  IntersectionExampleScenario.node[22].veinsmobility  posy  ETV
vector 56234  IntersectionExampleScenario.node[21].veinsmobility  speed  ETV
vector 56235  IntersectionExampleScenario.node[21].veinsmobility  acceleration  ETV
vector 56236  IntersectionExampleScenario.node[21].veinsmobility  co2emission  ETV
vector 56241  IntersectionExampleScenario.node[22].veinsmobility  speed  ETV
vector 56242  IntersectionExampleScenario.node[22].veinsmobility  acceleration  ETV
vector 56243  IntersectionExampleScenario.node[22].veinsmobility  co2emission  ETV
vector 56246  IntersectionExampleScenario.node[23].veinsmobility  posx  ETV
vector 56247  IntersectionExampleScenario.node[23].veinsmobility  posy  ETV
vector 56248  IntersectionExampleScenario.node[23].veinsmobility  speed  ETV
vector 56249  IntersectionExampleScenario.node[23].veinsmobility  acceleration  ETV
vector 56250  IntersectionExampleScenario.node[23].veinsmobility  co2emission  ETV
vector 56253  IntersectionExampleScenario.node[24].veinsmobility  posx  ETV
vector 56254  IntersectionExampleScenario.node[24].veinsmobility  posy  ETV
vector 56260  IntersectionExampleScenario.node[25].veinsmobility  posx  ETV
vector 56261  IntersectionExampleScenario.node[25].veinsmobility  posy  ETV
vector 56255  IntersectionExampleScenario.node[24].veinsmobility  speed  ETV
vector 56262  IntersectionExampleScenario.node[25].veinsmobility  speed  ETV
vector 56256  IntersectionExampleScenario.node[24].veinsmobility  acceleration  ETV
vector 56257  IntersectionExampleScenario.node[24].veinsmobility  co2emission  ETV
vector 56263  IntersectionExampleScenario.node[25].veinsmobility  acceleration  ETV
vector 56264  IntersectionExampleScenario.node[25].veinsmobility  co2emission  ETV
vector 56267  IntersectionExampleScenario.node[26].veinsmobility  posx  ETV
vector 56268  IntersectionExampleScenario.node[26].veinsmobility  posy  ETV
vector 56269  IntersectionExampleScenario.node[26].veinsmobility  speed  ETV
56089	13544 5076 14 3978 2.25 42.5 162 0.973 11.36141391502 497.59860970425 2603.3112020495
56088	18620 4590 14 3978 2.25 42.5 162 -3.4656429290771 2.5 36.98334312439 274.19288198751
56087	23210 4940 11 3978 2 42.5 163 5.6500000953674 15.25 2183.7128014565 30486.636126182
56086	28150 5239 8 3978 1.75 42.5 164 486.85000610352 733.28245544434 88214.6381073 48394480.004409
56085	33389 5282 8 3978 1.75 42.5 164 486.84750366211 785.82187652588 93870.51108551 55493257.774969
vector 56270  IntersectionExampleScenario.node[26].veinsmobility  acceleration  ETV
vector 56271  IntersectionExampleScenario.node[26].veinsmobility  co2emission  ETV
56103	38840 4920 48 4067 3.75 43 158 0.973 11.810082123732 509.98955174528 2862.2227432109
56102	43760 4684 48 4067 3.75 43 158 -3.8633232116699 2.5 39.020376205444 290.68591294712
56101	48444 4819 41 4067 3.5 43 159 5.6500000953674 15.875 2180.1505804062 31298.173476065
56100	53263 5168 34 4067 3.25 43 160 237.63616943359 483.14999389648 69255.709564209 30885148.212608
56099	58431 5148 34 4067 3.25 43 160 184.17810058594 483.16455078125 63567.950592041 26987591.558494
56096	63579 5117 24 4067 2.75 43 162 0.973 11.54047740176 511.71068373504 2685.4745944217
56095	68696 4447 24 4067 2.75 43 162 -4.5 2.5 38.680875778198 246.30310967614
56094	73143 5046 19 4067 2.5 43 163 5.6500000953674 15.5 2317.493262291 33649.793964456
56093	78189 5296 14 4067 2.25 43 164 486.85000610352 486.85000610352 79843.401000977 38871760.264651
56092	83485 5241 14 4067 2.25 43 164 235.68957519531 809.56562805176 87485.719718933 51392487.552867
vector 56274  IntersectionExampleScenario.node[27].veinsmobility  posx  ETV
vector 56275  IntersectionExampleScenario.node[27].veinsmobility  posy  ETV
vector 56276  IntersectionExampleScenario.node[27].veinsmobility  speed  ETV
vector 56277  IntersectionExampleScenario.node[27].veinsmobility  acceleration  ETV
vector 56278  IntersectionExampleScenario.node[27].veinsmobility  co2emission  ETV
vector 56281  IntersectionExampleScenario.node[28].veinsmobility  posx  ETV
vector 56282  IntersectionExampleScenario.node[28].veinsmobility  posy  ETV
vector 56283  IntersectionExampleScenario.node[28].veinsmobility  speed  ETV
vector 56284  IntersectionExampleScenario.node[28].veinsmobility  acceleration  ETV
vector 56285  IntersectionExampleScenario.node[28].veinsmobility  co2emission  ETV
vector 56288  IntersectionExampleScenario.node[29].veinsmobility  posx  ETV
vector 56289  IntersectionExampleScenario.node[29].veinsmobility  posy  ETV
vector 56290  IntersectionExampleScenario.node[29].veinsmobility  speed  ETV
vector 56291  IntersectionExampleScenario.node[29].veinsmobility  acceleration  ETV
vector 56292  IntersectionExampleScenario.node[29].veinsmobility  co2emission  ETV
vector 56295  IntersectionExampleScenario.node[30].veinsmobility  posx  ETV
vector 56296  IntersectionExampleScenario.node[30].veinsmobility  posy  ETV
vector 56297  IntersectionExampleScenario.node[30].veinsmobility  speed  ETV
vector 56298  IntersectionExampleScenario.node[30].veinsmobility  acceleration  ETV
vector 56299  IntersectionExampleScenario.node[30].veinsmobility  co2emission  ETV
vector 56302  IntersectionExampleScenario.node[31].veinsmobility  posx  ETV
vector 56303  IntersectionExampleScenario.node[31].veinsmobility  posy  ETV
56110	90484 5614 143 5703 7 52.5 183 0.973 11.450879080643 544.51103746452 2782.5420304928
56109	96098 5149 143 5703 7 52.5 183 -8.487024307251 4 37.15309715271 478.32413438468
56108	101247 5524 134 5703 6.75 52.5 184 0 15.375 2198.7463283539 30558.206619436
56107	106771 6017 125 5703 6.5 52.5 185 184.17810058594 486.85000610352 75346.014160156 32586369.844162
56106	112788 6031 125 5703 6.5 52.5 185 237.33026123047 486.85000610352 81540.808349609 36965705.092398
vector 56304  IntersectionExampleScenario.node[31].veinsmobility  speed  ETV
vector 56305  IntersectionExampleScenario.node[31].veinsmobility  acceleration  ETV
vector 56306  IntersectionExampleScenario.node[31].veinsmobility  co2emission  ETV
vector 56309  IntersectionExampleScenario.node[32].veinsmobility  posx  ETV
vector 56310  IntersectionExampleScenario.node[32].veinsmobility  posy  ETV
vector 56311  IntersectionExampleScenario.node[32].veinsmobility  speed  ETV
vector 56312  IntersectionExampleScenario.node[32].veinsmobility  acceleration  ETV
vector 56313  IntersectionExampleScenario.node[32].veinsmobility  co2emission  ETV
56117	119467 5748 228 6161 9.25 55 184 0.973 11.450879080643 555.30145191294 2800.9806868633
56116	125215 5373 228 6161 9.25 55 184 -4.5 2.5 38.171613693237 434.75268519646
56115	130588 5823 217 6161 9 55 185 0 15.375 2269.5526708364 31565.039733644
56114	136411 6062 206 6161 8.75 55 186 167.29217529297 487.04202270508 74306.336090088 31821982.374144
56113	142473 6074 206 6161 8.75 55 186 237.95819091797 486.85000610352 82192.766571045 37330575.309272
56166	148547 4848 1046 6828 20.25 58.75 155 0.973 12.26218747632 551.92803425103 3609.8767980057
56165	153395 4728 1046 6828 20.25 58.75 155 -3.4702930450439 2.5000038146973 41.227170944214 347.67403153552
56164	158123 4797 1021 6828 20 58.75 156 5.6500000953674 16.5 2179.1795525551 32035.117324206
56163	162920 5148 996 6828 19.75 58.75 157 184.17810058594 483.14999389648 62328.302490234 26448073.55202
56162	168068 5175 996 6828 19.75 58.75 157 486.85000610352 731.89097595215 84195.432632446 46030008.434024
vector 56316  IntersectionExampleScenario.node[33].veinsmobility  posx  ETV
vector 56317  IntersectionExampleScenario.node[33].veinsmobility  posy  ETV
vector 56318  IntersectionExampleScenario.node[33].veinsmobility  speed  ETV
vector 56319  IntersectionExampleScenario.node[33].veinsmobility  acceleration  ETV
vector 56320  IntersectionExampleScenario.node[33].veinsmobility  co2emission  ETV
vector 56323  IntersectionExampleScenario.node[34].veinsmobility  posx  ETV
vector 56324  IntersectionExampleScenario.node[34].veinsmobility  posy  ETV
vector 56325  IntersectionExampleScenario.node[34].veinsmobility  speed  ETV
vector 56326  IntersectionExampleScenario.node[34].veinsmobility  acceleration  ETV
vector 56327  IntersectionExampleScenario.node[34].veinsmobility  co2emission  ETV
56138	174045 6082 349 7476 11.5 62.5 205 0.973 11.450879080643 556.02470096234 2790.4633121013
56137	180127 5665 349 7476 11.5 62.5 205 -7.1879758834839 4 36.813589096069 467.3491082321
56136	185792 5894 332 7476 11.25 62.5 206 0 15.375 2093.3821256161 28967.1394504
56135	191686 6752 315 7476 11 62.5 207 237.89031982422 757.99687957764 104603.80427551 56461514.44172
56134	198438 6794 315 7476 11 62.5 207 483.14999389648 483.14999389648 100012.04873657 48320820.73665
vector 56330  IntersectionExampleScenario.node[35].veinsmobility  posx  ETV
vector 56331  IntersectionExampleScenario.node[35].veinsmobility  posy  ETV
56124	205386 6317 287 7605 10.5 63.25 212 0.973 11.90022389248 596.38238065946 2969.3183906977
56123	211703 5947 287 7605 10.5 63.25 212 -4.5 2.5 40.208654403687 474.40988628034
56122	217650 6127 274 7605 10.25 63.25 213 0 16 2209.3079909086 30956.377697512
56121	223777 7009 261 7605 10 63.25 214 483.13400268555 785.82187652588 119661.44468689 69004591.604663
56120	230786 7012 261 7605 10 63.25 214 483.14999389648 733.94451904297 111613.72592163 59270088.724526
vector 56337  IntersectionExampleScenario.node[36].veinsmobility  posx  ETV
vector 56338  IntersectionExampleScenario.node[36].veinsmobility  posy  ETV
vector 56332  IntersectionExampleScenario.node[35].veinsmobility  speed  ETV
vector 56333  IntersectionExampleScenario.node[35].veinsmobility  acceleration  ETV
vector 56334  IntersectionExampleScenario.node[35].veinsmobility  co2emission  ETV
vector 56339  IntersectionExampleScenario.node[36].veinsmobility  speed  ETV
vector 56340  IntersectionExampleScenario.node[36].veinsmobility  acceleration  ETV
vector 56341  IntersectionExampleScenario.node[36].veinsmobility  co2emission  ETV
56131	238446 6635 332 7837 11.25 64.5 214 0.973 11.54047740176 614.62728289246 2986.1273422834
56130	245081 6667 332 7837 11.25 64.5 214 -4.5 2.5000019073486 41.396924972534 440.77950228059
56129	251748 6868 315 7837 11 64.5 215 0 16.02680015564 2300.6680457592 32765.785555495
56128	258616 7063 300 7837 10.75 64.5 216 238.97436523438 808.82032012939 115080.50028992 65974341.316686
56127	265679 7091 300 7837 10.75 64.5 216 483.14999389648 483.14999389648 104360.39868164 50421725.986069
56159	272770 6206 766 8363 17.25 67.5 202 0.973 11.648172402475 563.57880961955 2901.172348633
56158	278976 6252 766 8363 17.25 67.5 202 -3.9512114524841 2.5 38.511121749878 367.99065596612
56157	285228 6468 743 8363 17 67.5 203 0 15.64999961853 2169.3854202516 29650.782813079
56156	291696 6688 720 8363 16.75 67.5 204 235.22357177734 772.65758514404 105313.49948883 58252914.363383
56155	298384 6719 720 8363 16.75 67.5 204 483.14999389648 483.14999389648 98562.598754883 47620518.986843
vector 56344  IntersectionExampleScenario.node[37].veinsmobility  posx  ETV
vector 56345  IntersectionExampleScenario.node[37].veinsmobility  posy  ETV
vector 56346  IntersectionExampleScenario.node[37].veinsmobility  speed  ETV
vector 56347  IntersectionExampleScenario.node[37].veinsmobility  acceleration  ETV
vector 56348  IntersectionExampleScenario.node[37].veinsmobility  co2emission  ETV
vector 56351  IntersectionExampleScenario.node[38].veinsmobility  posx  ETV
vector 56352  IntersectionExampleScenario.node[38].veinsmobility  posy  ETV
vector 56353  IntersectionExampleScenario.node[38].veinsmobility  speed  ETV
vector 56354  IntersectionExampleScenario.node[38].veinsmobility  acceleration  ETV
vector 56355  IntersectionExampleScenario.node[38].veinsmobility  co2emission  ETV
vector 56358  IntersectionExampleScenario.node[39].veinsmobility  posx  ETV
vector 56359  IntersectionExampleScenario.node[39].veinsmobility  posy  ETV
vector 56360  IntersectionExampleScenario.node[39].veinsmobility  speed  ETV
56145	306137 6527 678 8980 16.25 71.25 221 0.973 11.648172402475 591.277938066 2972.6334883126
56144	312664 5959 678 8980 16.25 71.25 221 -7.4922199249268 4 38.171613693237 484.73603371837
56143	318623 6289 657 8980 16 71.25 222 0 15.64999961853 2209.8923177719 31296.209765439
56142	324912 7342 638 8980 15.75 71.25 223 486.85000610352 486.85000610352 108567.55136108 52856113.042787
56141	332254 7319 638 8980 15.75 71.25 223 237.14044189453 785.82187652588 114782.58113861 63244034.266646
vector 56361  IntersectionExampleScenario.node[39].veinsmobility  acceleration  ETV
vector 56362  IntersectionExampleScenario.node[39].veinsmobility  co2emission  ETV
56187	339742 5615 1728 9227 26.5 72.75 186 0.973 12.099024792222 563.72364572568 3063.8039298082
56186	345357 5884 1728 9227 26.5 72.75 186 -2.1541862487793 2.5 41.057416915894 307.45844454178
56185	351241 6028 1699 9227 26.25 72.75 187 2.1301274299622 16.27499961853 2219.6217181683 30669.662950914
56184	357269 6204 1670 9227 26 72.75 188 486.85000610352 486.85000610352 91527.801147461 44560310.547283
56183	363473 6171 1670 9227 26 72.75 188 235.96759033203 785.82187652588 98160.242301941 55298369.00085
vector 56365  IntersectionExampleScenario.node[40].veinsmobility  posx  ETV
vector 56366  IntersectionExampleScenario.node[40].veinsmobility  posy  ETV
vector 56367  IntersectionExampleScenario.node[40].veinsmobility  speed  ETV
vector 56368  IntersectionExampleScenario.node[40].veinsmobility  acceleration  ETV
vector 56369  IntersectionExampleScenario.node[40].veinsmobility  co2emission  ETV
vector 56372  IntersectionExampleScenario.node[41].veinsmobility  posx  ETV
vector 56373  IntersectionExampleScenario.node[41].veinsmobility  posy  ETV
vector 56374  IntersectionExampleScenario.node[41].veinsmobility  speed  ETV
vector 56375  IntersectionExampleScenario.node[41].veinsmobility  acceleration  ETV
vector 56376  IntersectionExampleScenario.node[41].veinsmobility  co2emission  ETV
56215	370446 5726 2200 9807 30.5 76.25 184 0.973 11.36141391502 556.98639982524 2981.348135964
56214	376172 5639 2200 9807 30.5 76.25 184 -4.5 2.5 37.32285118103 414.73945228645
56213	381811 5784 2167 9807 30.25 76.25 185 3.9861278533936 15.25 2110.6558995247 27184.152085604
56212	387595 6122 2134 9807 30 76.25 186 486.85000610352 734.19076538086 98941.303512573 53632053.444974
56211	393717 6118 2134 9807 30 76.25 186 486.85000610352 766.88204193115 104568.69998932 60291815.202338
56201	399835 6463 1869 10367 27.75 79.75 209 0.973 10.47384764672 595.72836557515 2840.8883893125
56200	406298 6093 1869 10367 27.75 79.75 209 -4.5 2.5 33.248777389526 485.41453094871
56199	412391 6654 1840 10367 27.5 79.75 210 2.2674674987793 14.079750061035 2267.816924572 26987.862737698
56198	419045 6966 1811 10367 27.25 79.75 211 486.85000610352 733.21836853027 111618.73526001 60131101.086932
56197	426011 6955 1811 10367 27.25 79.75 211 486.66058349609 807.09531402588 123097.85839081 74265645.172385
56208	432966 6478 2134 10589 30 81.25 206 0.973 10.47384764672 591.21149487585 2577.0716747311
56207	439444 6525 2134 10589 30 81.25 206 -4.5 2.5 37.597902297974 372.51419980311
56206	445969 6554 2103 10589 29.75 81.25 207 5.42613697052 15.10635471344 2292.5263872147 28062.441549696
56205	452523 6872 2072 10589 29.5 81.25 208 486.85000610352 733.27398681641 109605.90943909 58785093.281866
56204	459395 6870 2072 10589 29.5 81.25 208 486.85000610352 813.34453582764 121720.03639984 73677075.166493
56222	466265 6518 2435 10872 32.25 83.25 205 0.973 9.9692587265235 580.21251998475 2439.8801314961
56221	472783 6540 2435 10872 32.25 83.25 205 -4.5 2.5 37.662351608276 323.77507164218
56220	479323 6587 2400 10872 32 83.25 206 5.2846670150757 15.125751495361 2311.2566170692 28545.671407945
56219	485910 6851 2365 10872 31.75 83.25 207 486.85000610352 734.39086914062 109155.04452515 58596567.489652
56218	492761 6843 2365 10872 31.75 83.25 207 486.85000610352 816.99255371094 121014.15454102 73155558.615418
56180	499604 6900 1557 10976 25 84 237 0.973 11.90022389248 619.16389929132 3165.6614741914
56179	506504 6506 1557 10976 25 84 237 -8.3404750823975 4 39.529638290405 520.93836944097
56178	513010 6548 1528 10976 24.75 84 238 0 16 2201.7659475803 31713.291705054
56177	519558 7883 1499 10976 24.5 84 239 184.17810058594 486.85000610352 101102.47750854 44818096.632274
56176	527441 7906 1499 10976 24.5 84 239 236.87365722656 486.85000610352 108111.08999634 49992571.853006
56271	535347 5389 4023 11009 42.75 84.25 167 0.973 10.916047529558 483.34233154539 2352.7271932562
56270	540736 4803 4023 11009 42.75 84.25 167 -3.423526763916 2.5 34.606801986694 248.23810703773
56269	545539 5261 3978 11009 42.5 84.25 168 5.6500000953674 14.625 2182.0808696747 29400.433563472
56268	550800 5601 3933 11009 42.25 84.25 169 237.15832519531 483.14999389648 72979.501586914 32489325.504761
56267	556401 5579 3933 11009 42.25 84.25 169 184.17810058594 483.23907470703 67248.945983887 28562238.517901
vector 56379  IntersectionExampleScenario.node[42].veinsmobility  posx  ETV
vector 56380  IntersectionExampleScenario.node[42].veinsmobility  posy  ETV
vector 56381  IntersectionExampleScenario.node[42].veinsmobility  speed  ETV
vector 56382  IntersectionExampleScenario.node[42].veinsmobility  acceleration  ETV
vector 56383  IntersectionExampleScenario.node[42].veinsmobility  co2emission  ETV
56229	562381 5977 2999 11248 36.25 86 200 0.973 11.810082123732 556.97781639369 2975.6604003262
56228	568358 6274 2999 11248 36.25 86 200 -2.0975685119629 2.5000004768372 38.511121749878 317.6133280912
56227	574632 6329 2962 11248 36 86 201 1.0668412446976 15.875 2193.486851573 29007.540135232
56226	580961 6673 2925 11248 35.75 86 202 184.17810058594 483.15124511719 82412.049804688 35463560.165984
56225	587634 6693 2925 11248 35.75 86 202 486.85000610352 735.35194396973 106650.50146484 57338739.029208
vector 56386  IntersectionExampleScenario.node[43].veinsmobility  posx  ETV
vector 56387  IntersectionExampleScenario.node[43].veinsmobility  posy  ETV
vector 56388  IntersectionExampleScenario.node[43].veinsmobility  speed  ETV
vector 56389  IntersectionExampleScenario.node[43].veinsmobility  acceleration  ETV
vector 56390  IntersectionExampleScenario.node[43].veinsmobility  co2emission  ETV
56264	594728 5736 3675 11389 40.75 87 186 0.973 11.810082123732 581.61059487229 3145.5736939848
56263	600464 5682 3675 11389 40.75 87 186 -4.5 2.5 42.754949569702 413.24114125304
56262	606146 5866 3632 11389 40.5 87 187 2.208482503891 16.390930175781 2079.230042696 28206.84939289
56261	612012 6204 3589 11389 40.25 87 188 208.28125 483.14999389648 77457.239654541 33317389.526783
56260	618216 6233 3589 11389 40.25 87 188 486.84997558594 731.14808654785 99088.844970703 53145476.094476
56243	624449 6280 3360 11713 38.75 89.5 204 0.973 11.450879080643 591.03292323179 3011.6509062894
56242	630729 6235 3360 11713 38.75 89.5 204 -4.5 2.5 38.680875778198 396.67313134358
56241	636964 6540 3321 11713 38.5 89.5 205 2.5014405250549 15.579092979431 2271.1845514774 29098.922597915
56240	643504 6830 3282 11713 38.25 89.5 206 168.58435058594 486.85000610352 80890.331634521 34001495.090825
56239	650334 6847 3282 11713 38.25 89.5 206 236.46765136719 486.85000610352 91898.586578369 42054206.678303
vector 56393  IntersectionExampleScenario.node[44].veinsmobility  posx  ETV
vector 56394  IntersectionExampleScenario.node[44].veinsmobility  posy  ETV
vector 56395  IntersectionExampleScenario.node[44].veinsmobility  speed  ETV
vector 56396  IntersectionExampleScenario.node[44].veinsmobility  acceleration  ETV
vector 56397  IntersectionExampleScenario.node[44].veinsmobility  co2emission  ETV
56292	657582 5306 5268 12091 50 92.75 172 0.973 11.200708441096 494.6033476783 2643.1851325241
56291	662888 5303 5268 12091 50 92.75 172 -3.3147964477539 2.5 35.795072555542 222.84745656033
56290	668191 5491 5225 12091 49.75 92.75 173 5.6500000953674 15.02499961853 2208.8479986191 29037.867831569
56289	673682 5775 5182 12091 49.5 92.75 174 184.17810058594 487.04608154297 69310.873504639 29436106.580816
56288	679457 5793 5182 12091 49.5 92.75 174 235.96435546875 486.85000610352 75898.643554688 34135506.101778
vector 56400  IntersectionExampleScenario.node[45].veinsmobility  posx  ETV
vector 56401  IntersectionExampleScenario.node[45].veinsmobility  posy  ETV
vector 56402  IntersectionExampleScenario.node[45].veinsmobility  speed  ETV
vector 56403  IntersectionExampleScenario.node[45].veinsmobility  acceleration  ETV
vector 56404  IntersectionExampleScenario.node[45].veinsmobility  co2emission  ETV
56173	685651 8818 1175 12372 21.5 95.5 297 0.973 11.450879080643 706.92426998489 3117.5501885757
56172	694469 8630 1175 12372 21.5 95.5 297 -4.5 2.5 38.850629806519 603.01418681233
56171	703099 8905 1148 12372 21.25 95.5 298 0 15.391575813293 2260.2368031386 29433.967468642
56170	712004 9910 1121 12372 21 95.5 299 483.13436889648 798.87957000732 164376.06237793 92675133.487179
56169	721914 9925 1121 12372 21 95.5 299 483.14999389648 733.13493347168 152802.96847534 79245615.927405
56152	731839 9085 699 12372 16.5 95.5 317 0.973 10.562040798468 695.80830097692 2850.2623144224
56151	740924 8705 699 12372 16.5 95.5 317 -31.404293060303 4 33.079023361206 1456.8782395876
56150	749629 9033 678 12372 16.25 95.5 318 0 14.304733276367 2258.0186985061 27487.28759266
56149	758662 10555 657 12372 16 95.5 319 237.95568847656 798.45140838623 166618.58570099 92107939.492779
56148	769217 10583 657 12372 16 95.5 319 483.14999389648 483.14999389648 154124.84805298 74465419.396093
56194	779800 8420 1840 12559 27.5 97.5 281 0.973 11.648172402475 636.990460266 2830.3669823677
56193	788220 8993 1840 12559 27.5 97.5 281 -4.5 2.5000004768372 38.511121749878 413.89623964379
56192	797213 9172 1811 12559 27.25 97.5 282 0 15.64999961853 2211.6897470914 28458.021334831
56191	806385 9388 1783 12559 27 97.5 283 237.91638183594 785.82187652588 147733.31459808 81283147.80263
56190	815773 9419 1783 12559 27 97.5 283 483.14999389648 483.14999389648 136731.44827271 66061798.398415
56250	825192 7334 3550 12751 40 99.75 240 0.973 11.648172402475 598.52774842502 2825.8410944716
56249	832526 7771 3550 12751 40 99.75 240 -3.9769072532654 2.5 38.511121749878 324.51333119442
56248	840297 7855 3511 12751 39.75 99.75 241 0 15.64999961853 2221.7380285971 29412.196651286
56247	848152 8045 3472 12751 39.5 99.75 242 235.60540771484 785.82187652588 126475.38282013 70277505.631216
56246	856197 8077 3472 12751 39.5 99.75 242 483.14999389648 483.14999389648 116922.29852295 56491007.817726
vector 56407  IntersectionExampleScenario.node[46].veinsmobility  posx  ETV
vector 56408  IntersectionExampleScenario.node[46].veinsmobility  posy  ETV
vector 56409  IntersectionExampleScenario.node[46].veinsmobility  speed  ETV
vector 56410  IntersectionExampleScenario.node[46].veinsmobility  acceleration  ETV
vector 56411  IntersectionExampleScenario.node[46].veinsmobility  co2emission  ETV
vector 56414  IntersectionExampleScenario.node[47].veinsmobility  posx  ETV
vector 56415  IntersectionExampleScenario.node[47].veinsmobility  posy  ETV
56278	864829 6889 4544 13011 45.75 103 230 0.973 11.810082123732 614.19818555474 2953.9619869681
56277	871718 6521 4544 13011 45.75 103 230 -7.2160105705261 4 39.699392318726 489.00515238546
56276	878239 6576 4499 13011 45.5 103 231 0 15.875 2233.3860424757 31729.950097325
56275	884815 7706 4454 13011 45.25 103 232 236.12365722656 483.14999389648 104027.93771362 47688485.061048
56274	892521 7737 4454 13011 45.25 103 232 171.40313720703 483.36395263672 96333.499389648 42237142.980564
56236	900258 7409 3321 13011 38.5 103 259 0.973 11.90022389248 638.28909836484 3205.3347969598
56235	907667 7321 3321 13011 38.5 103 259 -9.9954309463501 4 39.529638290405 526.02883161402
56234	914988 7433 3282 13011 38.25 103 260 0 16 2252.0991895199 29513.252915866
56233	922421 8727 3245 13011 38 103 261 486.85000610352 486.85000610352 127067.85159302 61862984.323621
56232	931148 8702 3245 13011 38 103 261 235.99810791016 795.31093597412 136069.72465515 75374116.6242
vector 56416  IntersectionExampleScenario.node[47].veinsmobility  speed  ETV
vector 56417  IntersectionExampleScenario.node[47].veinsmobility  acceleration  ETV
vector 56418  IntersectionExampleScenario.node[47].veinsmobility  co2emission  ETV
56285	940097 6932 5140 13057 49.25 103.5 218 0.96997852711604 12.44402232946 630.31594660261 3351.5007558384
56284	947029 6957 5140 13057 49.25 103.5 218 -4.5 2.5000000447035 42.585195541382 468.5558378574
56283	953986 7150 5097 13057 49 103.5 219 0 16.75 2288.6133707305 33831.355483456
56282	961136 7380 5054 13057 48.75 103.5 220 483.14999389648 483.14999389648 106292.99865723 51355461.652478
56281	968516 7336 5054 13057 48.75 103.5 220 168.14685058594 734.96467590332 98314.914581299 48305298.112528
56327	975852 5473 7346 13195 61.75 105 174 0.973 12.099024792222 550.74957074318 3159.2238035415
56326	981325 5593 7346 13195 61.75 105 174 -2.1867942810059 2.5 40.717908859253 306.08270983368
56325	986918 5752 7301 13195 61.5 105 175 4.0340261459351 16.27499961853 2216.0404891968 30825.744483778
56324	992670 5940 7256 13195 61.25 105 176 486.85000610352 486.85000610352 85685.601074219 41716035.405967
56323	998610 5922 7256 13195 61.25 105 176 236.98205566406 785.82187652588 92100.878135681 52231548.911898
vector 56421  IntersectionExampleScenario.node[48].veinsmobility  posx  ETV
vector 56422  IntersectionExampleScenario.node[48].veinsmobility  posy  ETV
vector 56423  IntersectionExampleScenario.node[48].veinsmobility  speed  ETV
vector 56424  IntersectionExampleScenario.node[48].veinsmobility  acceleration  ETV
vector 56425  IntersectionExampleScenario.node[48].veinsmobility  co2emission  ETV
56313	1004933 6456 6067 13368 54.5 106.75 210 0.973 11.54047740176 556.10413746824 2755.3287608856
56312	1011389 6749 6067 13368 54.5 106.75 210 -3.8736476898193 2.5000009536743 37.15309715271 339.01078414839
56311	1018138 6904 6020 13368 54.25 106.75 211 0 15.5 2128.9442442432 28011.963676218
56310	1025042 7142 5973 13368 54 106.75 212 483.14999389648 483.14999389648 102427.79870605 49487990.31966
56309	1032184 7115 5973 13368 54 106.75 212 204.40191650391 732.2405090332 96678.222885132 47844920.064387
56299	1039299 7121 5530 13543 51.5 108.5 229 0.973 11.54047740176 673.05007492026 3442.5502172161
56298	1046420 6962 5530 13543 51.5 108.5 229 -4.5 2.5000002384186 40.548154830933 675.19831049432
56297	1053382 7520 5485 13543 51.25 108.5 230 0 15.842469215393 2313.3032548875 30642.054676515
56296	1060902 7782 5440 13543 51 108.5 231 483.14999389648 483.14999389648 111607.64859009 53923234.735102
56295	1068684 7740 5440 13543 51 108.5 231 159.27655029297 732.07733154297 98756.749328613 47286731.036963
56348	1076424 5099 8608 13543 69 108.5 159 0.973 11.648172402475 510.92579414708 3025.010124011
56347	1081523 4868 8608 13543 69 108.5 159 -2.9448471069336 2.5 38.511121749878 239.41835090382
56346	1086391 5202 8567 13543 68.75 108.5 160 5.6500000953674 15.64999961853 2219.478685379 31450.960256946
56345	1091593 5473 8526 13543 68.5 108.5 161 486.85000610352 486.85000610352 78382.850982666 38160691.479322
56344	1097066 5439 8526 13543 68.5 108.5 161 236.28491210938 785.82187652588 84215.175697327 48214384.583876
vector 56428  IntersectionExampleScenario.node[49].veinsmobility  posx  ETV
vector 56429  IntersectionExampleScenario.node[49].veinsmobility  posy  ETV
56362	1102659 5072 9022 13718 71.5 110.25 156 0.973 12.717865293408 545.71017661782 3281.6156006265
56361	1107731 4947 9022 13718 71.5 110.25 156 -3.9484386444092 2.5 44.112981796265 310.57349502355
56360	1112678 5004 8980 13718 71.25 110.25 157 5.6500000953674 17.125 2240.7064433098 33750.74264132
56359	1117682 5376 8937 13718 71 110.25 158 486.85000610352 731.65058898926 84356.801361084 45893964.213931
56358	1123058 5381 8937 13718 71 110.25 158 486.8486328125 801.41563415527 91608.692062378 55026936.868585
vector 56430  IntersectionExampleScenario.node[49].veinsmobility  speed  ETV
vector 56431  IntersectionExampleScenario.node[49].veinsmobility  acceleration  ETV
vector 56432  IntersectionExampleScenario.node[49].veinsmobility  co2emission  ETV
56306	1128686 7544 5793 13956 53 112.75 240 0.973 10.65035628006 588.20743423678 2470.3028184536
56305	1136230 7537 5793 13956 53 112.75 240 -4.5 2.5000019073486 35.822849273682 390.20560134112
56304	1143767 7909 5748 13956 52.75 112.75 241 0 14.508327484131 2351.3243359905 29038.526917815
56303	1151676 8181 5703 13956 52.5 112.75 242 483.14999389648 483.14999389648 116922.29852295 56491007.817726
56302	1159857 8140 5703 13956 52.5 112.75 242 151.40582275391 733.87411499023 103310.89875793 49760610.992338
56355	1167997 5623 8732 14047 69.75 113.75 177 0.94600815583079 12.26218747632 585.37366961464 3522.890341381
56354	1173620 5411 8732 14047 69.75 113.75 177 -3.4838123321533 2.5 41.566686630249 383.06177925388
56353	1179031 5741 8691 14047 69.5 113.75 178 5.6500000953674 16.5 2180.37606287 29434.97421394
56352	1184772 6110 8649 14047 69.25 113.75 179 238.00244140625 483.14999389648 78760.94039917 35578676.21315
56351	1190882 6078 8649 14047 69.25 113.75 179 184.17810058594 483.14999389648 71480.889984131 30266437.245837
vector 56435  IntersectionExampleScenario.node[50].veinsmobility  posx  ETV
vector 56436  IntersectionExampleScenario.node[50].veinsmobility  posy  ETV
vector 56437  IntersectionExampleScenario.node[50].veinsmobility  speed  ETV
vector 56438  IntersectionExampleScenario.node[50].veinsmobility  acceleration  ETV
vector 56439  IntersectionExampleScenario.node[50].veinsmobility  co2emission  ETV
vector 56442  IntersectionExampleScenario.node[51].veinsmobility  posx  ETV
vector 56443  IntersectionExampleScenario.node[51].veinsmobility  posy  ETV
vector 56449  IntersectionExampleScenario.node[52].veinsmobility  posx  ETV
vector 56450  IntersectionExampleScenario.node[52].veinsmobility  posy  ETV
vector 56444  IntersectionExampleScenario.node[51].veinsmobility  speed  ETV
vector 56445  IntersectionExampleScenario.node[51].veinsmobility  acceleration  ETV
vector 56446  IntersectionExampleScenario.node[51].veinsmobility  co2emission  ETV
vector 56451  IntersectionExampleScenario.node[52].veinsmobility  speed  ETV
vector 56452  IntersectionExampleScenario.node[52].veinsmobility  acceleration  ETV
vector 56453  IntersectionExampleScenario.node[52].veinsmobility  co2emission  ETV
56341	1198163 6640 7744 14362 64 117 213 0.973 11.200708441096 565.17927713397 2701.5042577353
56340	1204803 6045 7744 14362 64 117 213 -8.6544380187988 4 35.795072555542 478.35016826786
56339	1210848 6463 7697 14362 63.75 117 214 0 15.02499961853 2218.0963425636 30381.5057129
56338	1217311 7300 7650 14362 63.5 117 215 184.17810058594 735.35032653809 97967.185791016 48973143.117139
56337	1224611 7322 7650 14362 63.5 117 215 486.85000610352 486.85000610352 104672.75131226 50959929.615243
vector 56456  IntersectionExampleScenario.node[53].veinsmobility  posx  ETV
vector 56457  IntersectionExampleScenario.node[53].veinsmobility  posy  ETV
vector 56458  IntersectionExampleScenario.node[53].veinsmobility  speed  ETV
vector 56459  IntersectionExampleScenario.node[53].veinsmobility  acceleration  ETV
vector 56460  IntersectionExampleScenario.node[53].veinsmobility  co2emission  ETV
vector 56463  IntersectionExampleScenario.node[54].veinsmobility  posx  ETV
vector 56464  IntersectionExampleScenario.node[54].veinsmobility  posy  ETV
vector 56465  IntersectionExampleScenario.node[54].veinsmobility  speed  ETV
vector 56466  IntersectionExampleScenario.node[54].veinsmobility  acceleration  ETV
vector 56467  IntersectionExampleScenario.node[54].veinsmobility  co2emission  ETV
vector 56470  IntersectionExampleScenario.node[55].veinsmobility  posx  ETV
vector 56471  IntersectionExampleScenario.node[55].veinsmobility  posy  ETV
vector 56472  IntersectionExampleScenario.node[55].veinsmobility  speed  ETV
vector 56473  IntersectionExampleScenario.node[55].veinsmobility  acceleration  ETV
vector 56474  IntersectionExampleScenario.node[55].veinsmobility  co2emission  ETV
vector 56477  IntersectionExampleScenario.node[56].veinsmobility  posx  ETV
vector 56478  IntersectionExampleScenario.node[56].veinsmobility  posy  ETV
vector 56484  IntersectionExampleScenario.node[57].veinsmobility  posx  ETV
vector 56485  IntersectionExampleScenario.node[57].veinsmobility  posy  ETV
vector 56479  IntersectionExampleScenario.node[56].veinsmobility  speed  ETV
vector 56480  IntersectionExampleScenario.node[56].veinsmobility  acceleration  ETV
vector 56481  IntersectionExampleScenario.node[56].veinsmobility  co2emission  ETV
vector 56486  IntersectionExampleScenario.node[57].veinsmobility  speed  ETV
vector 56487  IntersectionExampleScenario.node[57].veinsmobility  acceleration  ETV
vector 56488  IntersectionExampleScenario.node[57].veinsmobility  co2emission  ETV
vector 56491  IntersectionExampleScenario.node[58].veinsmobility  posx  ETV
vector 56492  IntersectionExampleScenario.node[58].veinsmobility  posy  ETV
vector 56493  IntersectionExampleScenario.node[58].veinsmobility  speed  ETV
56257	1234170 10225 3675 15413 40.75 127.25 347 0.973 11.00486315618 734.15640450575 2991.7443408654
56256	1244395 10218 3675 15413 40.75 127.25 347 -30.60754776001 4 34.606801986694 1414.6392133541
56255	1254613 10281 3632 15413 40.5 127.25 348 0 14.75 2308.827946458 28668.59125841
56254	1264894 11796 3589 15413 40.25 127.25 349 235.27844238281 808.82032012939 182512.52545166 100496164.99183
56253	1276690 11828 3589 15413 40.25 127.25 349 483.14999389648 483.14999389648 168619.34786987 81468436.894159
vector 56494  IntersectionExampleScenario.node[58].veinsmobility  acceleration  ETV
vector 56495  IntersectionExampleScenario.node[58].veinsmobility  co2emission  ETV
vector 56498  IntersectionExampleScenario.node[59].veinsmobility  posx  ETV
vector 56499  IntersectionExampleScenario.node[59].veinsmobility  posy  ETV
vector 56505  IntersectionExampleScenario.node[60].veinsmobility  posx  ETV
vector 56506  IntersectionExampleScenario.node[60].veinsmobility  posy  ETV
vector 56500  IntersectionExampleScenario.node[59].veinsmobility  speed  ETV
vector 56501  IntersectionExampleScenario.node[59].veinsmobility  acceleration  ETV
vector 56502  IntersectionExampleScenario.node[59].veinsmobility  co2emission  ETV
vector 56507  IntersectionExampleScenario.node[60].veinsmobility  speed  ETV
vector 56508  IntersectionExampleScenario.node[60].veinsmobility  acceleration  ETV
vector 56509  IntersectionExampleScenario.node[60].veinsmobility  co2emission  ETV
56320	1289489 8562 7084 15548 60.25 128.5 274 0.973 11.200708441096 650.23821653243 2963.9484184829
56319	1298051 8635 7084 15548 60.25 128.5 274 -4.3176155090332 2.5000019073486 35.625318527222 445.51591063011
56318	1306686 8732 7041 15548 60 128.5 275 0 15.02499961853 2190.6777364388 27401.245227632
56317	1315418 9397 6997 15548 59.75 128.5 276 486.85000610352 785.82187652588 151527.99044037 85246233.954996
56316	1324815 9419 6997 15548 59.75 128.5 276 234.98944091797 483.14999389648 124676.87167358 57479859.694625
vector 56512  IntersectionExampleScenario.node[61].veinsmobility  posx  ETV
vector 56513  IntersectionExampleScenario.node[61].veinsmobility  posy  ETV
vector 56514  IntersectionExampleScenario.node[61].veinsmobility  speed  ETV
vector 56515  IntersectionExampleScenario.node[61].veinsmobility  acceleration  ETV
vector 56516  IntersectionExampleScenario.node[61].veinsmobility  co2emission  ETV
56334	1334635 8395 7697 15699 63.75 129.75 265 0.973 11.200708441096 646.85287998898 2895.827099331
56333	1343030 8833 7697 15699 63.75 129.75 265 -4.5 2.5000009536743 41.227182388306 409.0042060276
56332	1351863 8758 7650 15699 63.5 129.75 266 0 15.984307289124 2222.1358961277 29623.469458112
56331	1360621 9125 7605 15699 63.25 129.75 267 486.85000610352 795.46562957764 147798.71122742 83926016.560605
56330	1369746 9137 7605 15699 63.25 129.75 267 237.59625244141 483.14999389648 121142.60354614 56007557.662628
vector 56519  IntersectionExampleScenario.node[62].veinsmobility  posx  ETV
vector 56520  IntersectionExampleScenario.node[62].veinsmobility  posy  ETV
vector 56521  IntersectionExampleScenario.node[62].veinsmobility  speed  ETV
vector 56526  IntersectionExampleScenario.node[63].veinsmobility  posx  ETV
vector 56527  IntersectionExampleScenario.node[63].veinsmobility  posy  ETV
vector 56522  IntersectionExampleScenario.node[62].veinsmobility  acceleration  ETV
vector 56523  IntersectionExampleScenario.node[62].veinsmobility  co2emission  ETV
vector 56528  IntersectionExampleScenario.node[63].veinsmobility  speed  ETV
vector 56529  IntersectionExampleScenario.node[63].veinsmobility  acceleration  ETV
vector 56530  IntersectionExampleScenario.node[63].veinsmobility  co2emission  ETV
56369	1379685 7377 9353 16318 73.5 134.75 246 0.973 12.099024792222 633.83180293112 3327.5832664604
56368	1387062 7132 9353 16318 73.5 134.75 246 -7.2145199775696 4 40.548154830933 482.97601595163
56367	1394194 7285 9311 16318 73.25 134.75 247 0 16.27499961853 2244.9724932909 31117.028079298
56366	1401479 8554 9268 16318 73 134.75 248 483.14999389648 483.14999389648 119821.19848633 57891611.317339
56365	1410033 8522 9268 16318 73 134.75 248 176.21716308594 733.28230285645 112046.71879578 54889391.796697
vector 56533  IntersectionExampleScenario.node[64].veinsmobility  posx  ETV
vector 56534  IntersectionExampleScenario.node[64].veinsmobility  posy  ETV
vector 56540  IntersectionExampleScenario.node[65].veinsmobility  posx  ETV
vector 56541  IntersectionExampleScenario.node[65].veinsmobility  posy  ETV
vector 56535  IntersectionExampleScenario.node[64].veinsmobility  speed  ETV
56383	1418941 6443 11178 16419 85.5 135.5 201 0.973 11.450879080643 563.17564826173 2822.8541166787
56382	1425384 5907 11178 16419 85.5 135.5 201 -8.4870567321777 4 37.15309715271 481.82449572734
56381	1431291 6303 11143 16419 85.25 135.5 202 0 15.375 2210.4979660511 30840.215052249
56380	1437594 7044 11108 16419 85 135.5 203 486.85000610352 486.85000610352 98830.551239014 48115654.473927
56379	1444638 7028 11108 16419 85 135.5 203 236.75714111328 785.82187652588 104801.31642914 58323419.565637
vector 56536  IntersectionExampleScenario.node[64].veinsmobility  acceleration  ETV
vector 56537  IntersectionExampleScenario.node[64].veinsmobility  co2emission  ETV
vector 56542  IntersectionExampleScenario.node[65].veinsmobility  speed  ETV
vector 56543  IntersectionExampleScenario.node[65].veinsmobility  acceleration  ETV
vector 56544  IntersectionExampleScenario.node[65].veinsmobility  co2emission  ETV
vector 56547  IntersectionExampleScenario.node[66].veinsmobility  posx  ETV
vector 56548  IntersectionExampleScenario.node[66].veinsmobility  posy  ETV
vector 56549  IntersectionExampleScenario.node[66].veinsmobility  speed  ETV
vector 56550  IntersectionExampleScenario.node[66].veinsmobility  acceleration  ETV
vector 56551  IntersectionExampleScenario.node[66].veinsmobility  co2emission  ETV
56376	1452483 7417 9766 16647 76 137 245 0.973 11.36141391502 590.62079064655 2793.2279965225
56375	1459900 7115 9766 16647 76 137 245 -4.5 2.5 36.813589096069 411.10999840825
56374	1467015 7266 9724 16647 75.75 137 246 0 15.25 2257.54793787 30067.259840176
56373	1474281 8511 9681 16647 75.5 137 247 237.8359375 483.14999389648 111025.28210449 50982366.714743
56372	1482792 8517 9681 16647 75.5 137 247 164.60388183594 483.14999389648 101800.11068726 44322297.214912
56390	1491309 6437 11389 16764 87 137.75 204 0.973 12.099024792222 586.22010016858 3229.9907678166
56389	1497746 6636 11389 16764 87 137.75 204 -3.6924905776978 2.5 41.227170944214 353.26355019338
56388	1504382 6925 11354 16764 86.75 137.75 205 0 16.27499961853 2220.7281913273 30636.612031534
56387	1511307 7157 11318 16764 86.5 137.75 206 483.14999389648 483.14999389648 99528.898742676 48087386.820047
56386	1518464 7126 11318 16764 86.5 137.75 206 184.17810058594 734.09921264648 92177.382476807 45288715.142488
vector 56554  IntersectionExampleScenario.node[67].veinsmobility  posx  ETV
vector 56555  IntersectionExampleScenario.node[67].veinsmobility  posy  ETV
vector 56561  IntersectionExampleScenario.node[68].veinsmobility  posx  ETV
vector 56562  IntersectionExampleScenario.node[68].veinsmobility  posy  ETV
vector 56556  IntersectionExampleScenario.node[67].veinsmobility  speed  ETV
vector 56557  IntersectionExampleScenario.node[67].veinsmobility  acceleration  ETV
vector 56558  IntersectionExampleScenario.node[67].veinsmobility  co2emission  ETV
vector 56563  IntersectionExampleScenario.node[68].veinsmobility  speed  ETV
vector 56564  IntersectionExampleScenario.node[68].veinsmobility  acceleration  ETV
vector 56565  IntersectionExampleScenario.node[68].veinsmobility  co2emission  ETV
vector 56568  IntersectionExampleScenario.node[69].veinsmobility  posx  ETV
vector 56569  IntersectionExampleScenario.node[69].veinsmobility  posy  ETV
vector 56570  IntersectionExampleScenario.node[69].veinsmobility  speed  ETV
vector 56571  IntersectionExampleScenario.node[69].veinsmobility  acceleration  ETV
vector 56572  IntersectionExampleScenario.node[69].veinsmobility  co2emission  ETV
56397	1526793 6533 11889 17395 91 141.5 203 0.973 11.648172402475 574.27250688203 2990.7548165229
56396	1533326 6530 11889 17395 91 141.5 203 -4.3515167236328 2.5 38.511121749878 403.67885152685
56395	1539856 6784 11860 17395 90.75 141.5 204 2.2486181259155 15.64999961853 2215.6107549667 28807.463344393
56394	1546640 7121 11830 17395 90.5 141.5 205 235.21783447266 483.14999389648 90765.662109375 41216042.039451
56393	1553761 7090 11830 17395 90.5 141.5 205 177.97814941406 483.18228149414 82655.37487793 35226706.199857
vector 56575  IntersectionExampleScenario.node[70].veinsmobility  posx  ETV
vector 56576  IntersectionExampleScenario.node[70].veinsmobility  posy  ETV
vector 56577  IntersectionExampleScenario.node[70].veinsmobility  speed  ETV
vector 56578  IntersectionExampleScenario.node[70].veinsmobility  acceleration  ETV
vector 56579  IntersectionExampleScenario.node[70].veinsmobility  co2emission  ETV
56404	1561252 6270 12322 17707 95 143.25 194 0.973 11.200708441096 535.54814606249 2660.2019896722
56403	1567522 6130 12322 17707 95 143.25 194 -4.3408298492432 2.5 36.813589096069 300.76957720204
56402	1573652 6578 12296 17707 94.75 143.25 195 1.4276292324066 15.169339179993 2259.4954080582 29729.801515178
56401	1580230 6838 12269 17707 94.5 143.25 196 483.14999389648 483.14999389648 94697.398803711 45753047.654026
56400	1587068 6803 12269 17707 94.5 143.25 196 174.87811279297 734.26638793945 86867.795928955 42966457.2015
56411	1593871 5807 12969 18017 102.5 145 171 0.973 10.756497587458 475.3005784793 2226.8898208086
56410	1599678 5218 12969 18017 102.5 145 171 -3.27321434021 2.5 32.909269332886 232.87802011011
56409	1604896 5722 12948 18017 102.25 145 172 5.6500000953674 14.39999961853 2184.6733937263 28688.380271629
56408	1610618 6038 12927 18017 102 145 173 486.85000610352 733.6156463623 93207.467803955 51226848.047687
56407	1616656 6044 12927 18017 102 145 173 486.72891235352 785.82187652588 98894.856742859 58363925.481998
vector 56582  IntersectionExampleScenario.node[71].veinsmobility  posx  ETV
vector 56583  IntersectionExampleScenario.node[71].veinsmobility  posy  ETV
vector 56584  IntersectionExampleScenario.node[71].veinsmobility  speed  ETV
vector 56585  IntersectionExampleScenario.node[71].veinsmobility  acceleration  ETV
vector 56586  IntersectionExampleScenario.node[71].veinsmobility  co2emission  ETV
56425	1623101 5662 13268 18403 105.75 147.25 167 0.973 10.756497587458 500.03630859688 2365.8607838246
56424	1628763 5345 13268 18403 105.75 147.25 167 -4.1295967102051 2.5 36.813589096069 240.82433320498
56423	1634108 5600 13243 18403 105.5 147.25 168 5.6500000953674 14.885364532471 2233.1022806168 30870.50280485
56422	1639708 5909 13218 18403 105.25 147.25 169 486.85000610352 734.15519714355 90745.666763306 49693334.306449
56421	1645617 5905 13218 18403 105.25 147.25 169 486.85000610352 797.07032012939 97401.614334106 58086037.060702
vector 56589  IntersectionExampleScenario.node[72].veinsmobility  posx  ETV
vector 56590  IntersectionExampleScenario.node[72].veinsmobility  posy  ETV
vector 56596  IntersectionExampleScenario.node[73].veinsmobility  posx  ETV
vector 56597  IntersectionExampleScenario.node[73].veinsmobility  posy  ETV
vector 56591  IntersectionExampleScenario.node[72].veinsmobility  speed  ETV
vector 56592  IntersectionExampleScenario.node[72].veinsmobility  acceleration  ETV
vector 56593  IntersectionExampleScenario.node[72].veinsmobility  co2emission  ETV
vector 56598  IntersectionExampleScenario.node[73].veinsmobility  speed  ETV
vector 56599  IntersectionExampleScenario.node[73].veinsmobility  acceleration  ETV
vector 56600  IntersectionExampleScenario.node[73].veinsmobility  co2emission  ETV
vector 56603  IntersectionExampleScenario.node[74].veinsmobility  posx  ETV
vector 56604  IntersectionExampleScenario.node[74].veinsmobility  posy  ETV
vector 56605  IntersectionExampleScenario.node[74].veinsmobility  speed  ETV
vector 56606  IntersectionExampleScenario.node[74].veinsmobility  acceleration  ETV
vector 56607  IntersectionExampleScenario.node[74].veinsmobility  co2emission  ETV
vector 56610  IntersectionExampleScenario.node[75].veinsmobility  posx  ETV
vector 56611  IntersectionExampleScenario.node[75].veinsmobility  posy  ETV
vector 56612  IntersectionExampleScenario.node[75].veinsmobility  speed  ETV
vector 56613  IntersectionExampleScenario.node[75].veinsmobility  acceleration  ETV
vector 56614  IntersectionExampleScenario.node[75].veinsmobility  co2emission  ETV
56418	1653126 6907 13057 20160 103.5 158 219 0.973 11.90022389248 602.09099561788 3104.8037400688
56417	1660033 6274 13057 20160 103.5 158 219 -6.9388580322266 4 39.869146347046 483.42859174969
56416	1666307 6637 13034 20160 103.25 158 220 0 16 2206.8655982018 31827.855697043
56415	1672944 7723 13011 20160 103 158 221 483.14999389648 785.82187652588 121733.0439682 69054495.622917
56414	1680667 7727 13011 20160 103 158 221 483.14999389648 734.16282653809 115048.18409729 60965198.384624
56446	1688394 5749 14281 20424 116.25 160 176 0.973 12.099024792222 552.7585693348 3124.796343197
56445	1694143 5464 14281 20424 116.25 160 176 -2.1759452819824 2.5 41.396924972534 296.64337747096
56444	1699607 5947 14254 20424 116 160 177 3.6576609611511 16.27499961853 2214.0624907017 30736.815233251
56443	1705554 6218 14229 20424 115.75 160 178 483.14999389648 785.82187652588 100876.54750824 58948692.690614
56442	1711772 6225 14229 20424 115.75 160 178 483.14999389648 734.33963012695 94109.154937744 50741047.889302
56460	1717997 5501 14703 20609 120.25 161.5 166 0.973 12.099024792222 563.87466817591 3411.3779669318
56459	1723498 5359 14703 20609 120.25 161.5 166 -4.5 2.5 41.227170944214 374.84587952986
56458	1728857 5603 14679 20609 120 161.5 167 5.3500447273254 16.27499961853 2233.2111697197 31818.747151444
56457	1734460 5868 14653 20609 119.75 161.5 168 238.787109375 792.02188110352 88816.799003601 51065036.075173
56456	1740328 5880 14653 20609 119.75 161.5 168 483.14999389648 483.14999389648 81169.198974609 39216897.989165
56474	1746208 5507 14975 20899 123 164 165 0.973 11.990504229548 517.6923172227 2890.5833531459
56473	1751715 5423 14975 20899 123 164 165 -4.5 2.5 39.869146347046 238.86504720844
56472	1757138 5551 14950 20899 122.75 164 166 5.6500000953674 16.125 2290.7374849319 32616.847711684
56471	1762689 5817 14925 20899 122.5 164 167 235.99987792969 803.14532470703 88781.897346497 51679802.427556
56470	1768506 5844 14925 20899 122.5 164 167 483.14999389648 483.14999389648 80686.048980713 38983464.072563
56439	1774350 6635 14114 21161 114.5 166.5 209 0.973 12.099024792222 606.76783894744 3280.1237194211
56438	1780985 6001 14114 21161 114.5 166.5 209 -8.3548908233643 4 41.566686630249 516.67633374402
56437	1786986 6373 14091 21161 114.25 166.5 210 0 16.27499961853 2209.299762249 32697.291088252
56436	1793359 7384 14068 21161 114 166.5 211 483.14999389648 483.14999389648 101944.64871216 49254556.403058
56435	1800743 7349 14068 21161 114 166.5 211 184.17810058594 732.49440002441 95781.130081177 47482270.008191
56432	1808092 7052 13769 21211 110.75 167 226 0.973 11.90022389248 612.63494762652 3142.9174144976
56431	1815144 6812 13769 21211 110.75 167 226 -7.4415817260742 4 39.020376205444 514.1792399859
56430	1821956 6790 13744 21211 110.5 167 227 0 16 2213.1462082863 31631.488601986
56429	1828746 7972 13718 21211 110.25 167 228 238.40350341797 486.85000610352 102793.48202515 47407887.082788
56428	1836718 7967 13718 21211 110.25 167 228 483.14999389648 790.37563323975 125701.77593231 71408829.294493
vector 56617  IntersectionExampleScenario.node[76].veinsmobility  posx  ETV
vector 56618  IntersectionExampleScenario.node[76].veinsmobility  posy  ETV
56453	1844839 6728 14308 21329 116.5 168.25 208 0.973 11.648172402475 569.23520969635 2916.423716204
56452	1851567 6946 14308 21329 116.5 168.25 208 -3.7088174819946 2.5000004768372 38.511121749878 356.8076376174
56451	1858513 7145 14281 21329 116.25 168.25 209 0 15.64999961853 2214.0935710017 30309.513347989
56450	1865658 7349 14254 21329 116 168.25 210 486.85000610352 486.85000610352 102238.50128174 49774814.973028
56449	1873007 7297 14254 21329 116 168.25 210 237.14233398438 785.82187652588 109002.39511871 60712487.551221
vector 56619  IntersectionExampleScenario.node[76].veinsmobility  speed  ETV
vector 56620  IntersectionExampleScenario.node[76].veinsmobility  acceleration  ETV
vector 56621  IntersectionExampleScenario.node[76].veinsmobility  co2emission  ETV
56467	1880551 6350 14776 21499 121 170 197 0.973 11.200708441096 533.11015578029 2601.05271527
56466	1886901 6680 14776 21499 121 170 197 -2.1545448303223 2.5 35.964826583862 273.31818690752
56465	1893581 6794 14751 21499 120.75 170 198 1.8217378854752 15.02499961853 2221.7024129629 28893.510353956
56464	1900375 6964 14726 21499 120.5 170 199 483.14999389648 483.14999389648 96146.8487854 46453349.403832
56463	1907339 6923 14726 21499 120.5 170 199 184.17810058594 735.03959655762 89604.763534546 44657693.791801
56509	1914262 5529 15548 21545 128.5 170.5 169 0.973 11.648172402475 513.91850143445 2763.5474515113
56508	1919791 5534 15548 21545 128.5 170.5 169 -2.0723075866699 2.5000019073486 38.341367721558 267.2258809164
56507	1925325 5778 15519 21545 128.25 170.5 170 4.5994420051575 15.64999961853 2106.281003952 28180.985260582
56506	1931103 5984 15490 21545 128 170.5 171 486.85000610352 486.85000610352 83251.351043701 40530920.763752
56505	1937087 5958 15490 21545 128 170.5 171 236.23815917969 757.99687957764 87428.637649536 48293014.470672
56488	1943045 5997 15253 21591 125.75 171 182 0.973 11.90022389248 563.0362438207 3075.2583888716
56487	1949042 5972 15253 21591 125.75 171 182 -4.4362297058105 2.5 40.038900375366 350.89253489374
56486	1955014 6104 15226 21591 125.5 171 183 4.5436730384827 16 2210.3094820976 29899.61616453
56485	1961118 6437 15199 21591 125.25 171 184 483.14999389648 733.70159912109 97125.45854187 52272735.100312
56484	1967555 6407 15199 21591 125.25 171 184 184.17810058594 486.87554931641 73972.982849121 31525102.642412
56495	1973962 6282 15438 21850 127.5 174 187 0.973 10.920673141852 522.09551160339 2309.2057950711
56494	1980244 6020 15438 21850 127.5 174 187 -4.5 2.5 34.097539901733 303.47492604075
56493	1986264 6388 15413 21850 127.25 174 188 4.9294400215149 14.631514549255 2214.4466505051 27779.365834265
56492	1992652 6613 15387 21850 127 174 189 486.85000610352 486.85000610352 92014.651153564 44797333.475726
56491	1999265 6590 15387 21850 127 174 189 236.90124511719 785.82187652588 100092.63012695 57695291.102459
56537	2005855 5265 16456 21948 135.75 175.25 159 0.973 11.648172402475 510.42798806288 3009.1401959211
56536	2011120 5143 16456 21948 135.75 175.25 159 -3.6694412231445 2.5 38.341367721558 261.57535476407
56535	2016263 5310 16419 21948 135.5 175.25 160 5.6500000953674 15.64999961853 2215.2267074585 31558.616833983
56534	2021573 5632 16384 21948 135.25 175.25 161 483.14999389648 735.38888549805 86341.589859009 47286891.825459
56533	2027205 5610 16384 21948 135.25 175.25 161 184.17810058594 487.05770874023 64080.899475098 27284790.415247
56502	2032815 6500 15519 22005 128.25 176 192 0.973 11.00486315618 534.54877095715 2393.7981631842
56501	2039315 6418 15519 22005 128.25 176 192 -4.5 2.5 35.116056442261 266.85259516917
56500	2045733 6484 15490 22005 128 176 193 5.6500000953674 14.75 2291.0824871063 28666.673046721
56499	2052217 6779 15463 22005 127.75 176 194 238.375 486.85000610352 85706.081848145 38919054.240216
56498	2058996 6778 15463 22005 127.75 176 194 483.12356567383 808.82032012939 113189.20794678 68415708.639693
56516	2065774 6682 15668 22177 129.5 178.5 197 0.973 10.916047529558 564.84757808925 2543.9081760798
56515	2072456 6442 15668 22177 129.5 178.5 197 -4.5 2.5 38.15309715271 333.07650044059
56514	2078898 6621 15637 22177 129.25 178.5 198 5.0180554389954 14.625 2312.3103432655 28766.600826459
56513	2085519 6958 15606 22177 129 178.5 199 486.85000610352 732.6075592041 105400.63317871 56852745.38926
56512	2092477 6949 15606 22177 129 178.5 199 486.74026489258 818.63967132568 117166.41647339 71540340.010404
vector 56624  IntersectionExampleScenario.node[77].veinsmobility  posx  ETV
vector 56625  IntersectionExampleScenario.node[77].veinsmobility  posy  ETV
vector 56626  IntersectionExampleScenario.node[77].veinsmobility  speed  ETV
vector 56627  IntersectionExampleScenario.node[77].veinsmobility  acceleration  ETV
vector 56628  IntersectionExampleScenario.node[77].veinsmobility  co2emission  ETV
56530	2099827 6243 16120 22302 133.25 180.5 190 0.973 11.200708441096 550.51902971773 2697.7949564452
56529	2106070 5630 16120 22302 133.25 180.5 190 -8.487024307251 4 37.15309715271 471.89164355972
56528	2111700 6112 16087 22302 133 180.5 191 0 15.02499961853 2196.9561758041 30504.304240947
56527	2117812 6700 16054 22302 132.75 180.5 192 184.17810058594 486.85000610352 78647.214202881 34143215.80446
56526	2124512 6709 16054 22302 132.75 180.5 192 237.74255371094 486.85000610352 84970.552490234 38639459.099229
vector 56631  IntersectionExampleScenario.node[78].veinsmobility  posx  ETV
vector 56632  IntersectionExampleScenario.node[78].veinsmobility  posy  ETV
56551	2131375 5858 16608 22348 136.75 181.25 179 0.973 12.26218747632 568.77070545104 3110.6292581281
56550	2137233 5579 16608 22348 136.75 181.25 179 -4.5 2.5 41.227170944214 503.31652020172
56549	2142812 5709 16569 22348 136.5 181.25 180 0 16.5 2152.0705528259 30875.011762956
56548	2148521 6320 16530 22348 136.25 181.25 181 194.42419433594 483.14999389648 74201.793945312 32077869.873258
56547	2154841 6333 16530 22348 136.25 181.25 181 486.85000610352 735.04365539551 96068.636871338 51951067.957465
vector 56633  IntersectionExampleScenario.node[78].veinsmobility  speed  ETV
vector 56634  IntersectionExampleScenario.node[78].veinsmobility  acceleration  ETV
vector 56635  IntersectionExampleScenario.node[78].veinsmobility  co2emission  ETV
56544	2161421 6246 16493 22479 136 183.25 190 0.973 12.26218747632 585.74828997134 3122.5936415844
56543	2167667 6299 16493 22479 136 183.25 190 -4.5 2.5 41.396924972534 393.34638633343
56542	2173966 6345 16456 22479 135.75 183.25 191 1.6381335258484 16.5 2240.3168631792 31087.874472155
56541	2180311 6701 16419 22479 135.5 183.25 192 169.95465087891 483.15045166016 76066.528564453 32302701.563567
56540	2187012 6712 16419 22479 135.5 183.25 192 486.85000610352 732.57949829102 101261.27366638 54358643.969729
vector 56638  IntersectionExampleScenario.node[79].veinsmobility  posx  ETV
vector 56639  IntersectionExampleScenario.node[79].veinsmobility  posy  ETV
vector 56640  IntersectionExampleScenario.node[79].veinsmobility  speed  ETV
vector 56641  IntersectionExampleScenario.node[79].veinsmobility  acceleration  ETV
vector 56642  IntersectionExampleScenario.node[79].veinsmobility  co2emission  ETV
56558	2194125 6227 17004 22616 139.25 186 188 0.973 11.200708441096 532.9813715064 2630.8606338196
56557	2200352 6054 17004 22616 139.25 186 188 -3.4687118530273 2.5000019073486 35.625318527222 313.31622498041
56556	2206406 6413 16961 22616 139 186 189 3.0765511989594 15.02499961853 2303.3197681904 30474.826032709
56555	2212819 6609 16920 22616 138.75 186 190 162.921875 734.00088500977 83569.447052002 41556624.156059
56554	2219428 6649 16920 22616 138.75 186 190 486.85000610352 486.85000610352 92501.501159668 45034356.404169
vector 56645  IntersectionExampleScenario.node[80].veinsmobility  posx  ETV
vector 56646  IntersectionExampleScenario.node[80].veinsmobility  posy  ETV
56579	2226231 5976 17707 22696 143.25 187.75 179 0.973 12.26218747632 586.45352772092 3262.9780183316
56578	2232207 5924 17707 22696 143.25 187.75 179 -4.5 2.5 41.396924972534 386.06898238665
56577	2238131 5962 17662 22696 143 187.75 180 5.6500000953674 16.5 2246.2255945206 30866.192802641
56576	2244093 6309 17617 22696 142.75 187.75 181 167.34997558594 483.14999389648 71195.251708984 29992569.821813
56575	2250402 6330 17617 22696 142.75 187.75 181 486.85000610352 731.41256713867 95824.069671631 51653624.548428
vector 56647  IntersectionExampleScenario.node[80].veinsmobility  speed  ETV
vector 56648  IntersectionExampleScenario.node[80].veinsmobility  acceleration  ETV
vector 56649  IntersectionExampleScenario.node[80].veinsmobility  co2emission  ETV
56481	2256979 7940 15226 22787 125.5 189.5 257 0.973 11.90022389248 665.31485486684 3273.2954339279
56480	2264919 6958 15226 22787 125.5 189.5 257 -21.480487823486 4 41.396924972534 906.73877742066
56479	2271877 7550 15199 22787 125.25 189.5 258 0 16.01335144043 2304.9756116867 32871.72220566
56478	2279427 9038 15174 22787 125 189.5 259 238.08117675781 810.07735443115 135492.5472641 75510149.827197
56477	2288465 9064 15174 22787 125 189.5 259 483.14999389648 483.14999389648 125135.84841919 60459384.399963
vector 56652  IntersectionExampleScenario.node[81].veinsmobility  posx  ETV
vector 56653  IntersectionExampleScenario.node[81].veinsmobility  posy  ETV
vector 56654  IntersectionExampleScenario.node[81].veinsmobility  speed  ETV
vector 56655  IntersectionExampleScenario.node[81].veinsmobility  acceleration  ETV
vector 56656  IntersectionExampleScenario.node[81].veinsmobility  co2emission  ETV
56565	2297930 6794 17047 22948 139.5 192.25 212 0.97223939240464 11.648172402475 572.70815629856 2905.3497427611
56564	2304724 7141 17047 22948 139.5 192.25 212 -3.8517127037048 2.5 38.680875778198 331.79461892222
56563	2311865 7313 17004 22948 139.25 192.25 213 0 15.64999961853 2218.4474606514 29769.164245271
56562	2319178 7465 16961 22948 139 192.25 214 236.03247070312 785.82187652588 111242.57611847 61983415.60448
56561	2326643 7489 16961 22948 139 192.25 214 483.14999389648 483.14999389648 103394.09869385 49954858.152865
56572	2334132 6915 17395 23083 141.5 194.5 213 0.973 11.200708441096 573.53217791898 2682.0735793748
56571	2341047 7229 17395 23083 141.5 194.5 213 -4.5 2.5000009536743 37.15309715271 355.84935950941
56570	2348276 7370 17350 23083 141.25 194.5 214 1.8943336009979 15.206497192383 2281.9070134163 29593.677754182
56569	2355646 7495 17305 23083 141 194.5 215 238.14251708984 803.92188262939 114144.72653198 65203514.681501
56568	2363141 7524 17305 23083 141 194.5 215 483.14999389648 483.14999389648 103877.24868774 50188292.069467
vector 56659  IntersectionExampleScenario.node[82].veinsmobility  posx  ETV
vector 56660  IntersectionExampleScenario.node[82].veinsmobility  posy  ETV
vector 56661  IntersectionExampleScenario.node[82].veinsmobility  speed  ETV
vector 56666  IntersectionExampleScenario.node[83].veinsmobility  posx  ETV
vector 56667  IntersectionExampleScenario.node[83].veinsmobility  posy  ETV
vector 56662  IntersectionExampleScenario.node[82].veinsmobility  acceleration  ETV
vector 56663  IntersectionExampleScenario.node[82].veinsmobility  co2emission  ETV
vector 56668  IntersectionExampleScenario.node[83].veinsmobility  speed  ETV
vector 56669  IntersectionExampleScenario.node[83].veinsmobility  acceleration  ETV
vector 56670  IntersectionExampleScenario.node[83].veinsmobility  co2emission  ETV
56586	2371467 6518 18360 23299 147 197.5 203 0.973 11.36141391502 564.95455362455 2899.6030606126
56585	2377985 6688 18360 23299 147 197.5 203 -3.8243522644043 2.5 37.32285118103 358.1380707023
56584	2384673 6818 18317 23299 146.75 197.5 204 2.9011387825012 15.25 2206.3015060425 28013.226182748
56583	2391491 7162 18274 23299 146.5 197.5 205 486.80328369141 789.8674697876 116513.09152222 68085188.156347
56582	2398653 7171 18274 23299 146.5 197.5 205 235.15850830078 483.14999389648 90611.145965576 41093703.528257
vector 56673  IntersectionExampleScenario.node[84].veinsmobility  posx  ETV
vector 56674  IntersectionExampleScenario.node[84].veinsmobility  posy  ETV
vector 56675  IntersectionExampleScenario.node[84].veinsmobility  speed  ETV
vector 56676  IntersectionExampleScenario.node[84].veinsmobility  acceleration  ETV
vector 56677  IntersectionExampleScenario.node[84].veinsmobility  co2emission  ETV
vector 56680  IntersectionExampleScenario.node[85].veinsmobility  posx  ETV
vector 56681  IntersectionExampleScenario.node[85].veinsmobility  posy  ETV
vector 56682  IntersectionExampleScenario.node[85].veinsmobility  speed  ETV
vector 56683  IntersectionExampleScenario.node[85].veinsmobility  acceleration  ETV
vector 56684  IntersectionExampleScenario.node[85].veinsmobility  co2emission  ETV
56600	2406626 6561 18627 23467 148.5 199.5 205 0.973 11.450879080643 568.244030981 2860.3400451697
56599	2413187 6142 18627 23467 148.5 199.5 205 -7.7886066436768 4 37.15309715271 484.0330967487
56598	2419329 6447 18581 23467 148.25 199.5 206 0 15.375 2210.7505700588 30823.541368256
56597	2425776 7244 18534 23467 148 199.5 207 483.14999389648 483.14999389648 100012.04873657 48320820.73665
56596	2433020 7209 18534 23467 148 199.5 207 184.17810058594 733.24285888672 93989.493850708 46896353.32607
56523	2440229 8391 16054 23513 132.75 200 270 0.973 10.916047529558 643.82783412718 2678.9886657956
56522	2448620 7843 16054 23513 132.75 200 270 -8.9843254089355 4 35.795072555542 516.99174849291
56521	2456463 8189 16023 23513 132.5 200 271 0 14.794745445251 2306.5181407928 28837.821434429
56520	2464652 9460 15992 23513 132.25 200 272 486.85000610352 735.56745910645 141112.67962646 74369077.803928
56519	2474112 9501 15992 23513 132.25 200 272 486.63604736328 815.58087921143 152207.2042923 87936833.45593
56593	2483613 6660 18581 23536 148.25 200.25 209 0.973 11.648172402475 573.68952320182 2939.5402753495
56592	2490273 6907 18581 23536 148.25 200.25 209 -3.7150266170502 2.5 39.869146347046 338.07552127985
56591	2497180 7098 18534 23536 148 200.25 210 0 15.664808273315 2205.6339490786 29848.216287496
56590	2504278 7379 18489 23536 147.75 200.25 211 237.28820800781 486.85000610352 94538.671325684 43400500.516079
56589	2511657 7374 18489 23536 147.75 200.25 211 483.13311767578 785.82187652588 117714.88994598 67565881.104523
vector 56687  IntersectionExampleScenario.node[86].veinsmobility  posx  ETV
vector 56688  IntersectionExampleScenario.node[86].veinsmobility  posy  ETV
vector 56689  IntersectionExampleScenario.node[86].veinsmobility  speed  ETV
vector 56690  IntersectionExampleScenario.node[86].veinsmobility  acceleration  ETV
vector 56691  IntersectionExampleScenario.node[86].veinsmobility  co2emission  ETV
56614	2519432 6141 19683 23728 154.75 202.25 191 0.973 11.648172402475 549.4783557404 2914.395662114
56613	2525573 6177 19683 23728 154.75 202.25 191 -2.3953819274902 2.5000019073486 38.341367721558 308.66754498761
56612	2531750 6512 19643 23728 154.5 202.25 192 2.7800281047821 15.64999961853 2221.2701730728 29090.880664274
56611	2538262 6756 19602 23728 154.25 202.25 193 486.85000610352 486.85000610352 93962.051177979 45745425.189498
56610	2545018 6745 19602 23728 154.25 202.25 193 235.49499511719 785.82187652588 101155.11341095 57219036.046243
vector 56694  IntersectionExampleScenario.node[87].veinsmobility  posx  ETV
vector 56695  IntersectionExampleScenario.node[87].veinsmobility  posy  ETV
vector 56701  IntersectionExampleScenario.node[88].veinsmobility  posx  ETV
vector 56702  IntersectionExampleScenario.node[88].veinsmobility  posy  ETV
vector 56696  IntersectionExampleScenario.node[87].veinsmobility  speed  ETV
vector 56697  IntersectionExampleScenario.node[87].veinsmobility  acceleration  ETV
vector 56698  IntersectionExampleScenario.node[87].veinsmobility  co2emission  ETV
vector 56703  IntersectionExampleScenario.node[88].veinsmobility  speed  ETV
vector 56704  IntersectionExampleScenario.node[88].veinsmobility  acceleration  ETV
vector 56705  IntersectionExampleScenario.node[88].veinsmobility  co2emission  ETV
vector 56708  IntersectionExampleScenario.node[89].veinsmobility  posx  ETV
vector 56709  IntersectionExampleScenario.node[89].veinsmobility  posy  ETV
vector 56715  IntersectionExampleScenario.node[90].veinsmobility  posx  ETV
vector 56716  IntersectionExampleScenario.node[90].veinsmobility  posy  ETV
vector 56710  IntersectionExampleScenario.node[89].veinsmobility  speed  ETV
vector 56711  IntersectionExampleScenario.node[89].veinsmobility  acceleration  ETV
vector 56712  IntersectionExampleScenario.node[89].veinsmobility  co2emission  ETV
vector 56717  IntersectionExampleScenario.node[90].veinsmobility  speed  ETV
vector 56718  IntersectionExampleScenario.node[90].veinsmobility  acceleration  ETV
vector 56719  IntersectionExampleScenario.node[90].veinsmobility  co2emission  ETV
vector 56722  IntersectionExampleScenario.node[91].veinsmobility  posx  ETV
vector 56723  IntersectionExampleScenario.node[91].veinsmobility  posy  ETV
vector 56724  IntersectionExampleScenario.node[91].veinsmobility  speed  ETV
vector 56725  IntersectionExampleScenario.node[91].veinsmobility  acceleration  ETV
vector 56726  IntersectionExampleScenario.node[91].veinsmobility  co2emission  ETV
vector 56729  IntersectionExampleScenario.node[92].veinsmobility  posx  ETV
vector 56730  IntersectionExampleScenario.node[92].veinsmobility  posy  ETV
vector 56731  IntersectionExampleScenario.node[92].veinsmobility  speed  ETV
vector 56732  IntersectionExampleScenario.node[92].veinsmobility  acceleration  ETV
vector 56733  IntersectionExampleScenario.node[92].veinsmobility  co2emission  ETV
vector 56736  IntersectionExampleScenario.node[93].veinsmobility  posx  ETV
vector 56737  IntersectionExampleScenario.node[93].veinsmobility  posy  ETV
vector 56738  IntersectionExampleScenario.node[93].veinsmobility  speed  ETV
vector 56739  IntersectionExampleScenario.node[93].veinsmobility  acceleration  ETV
vector 56740  IntersectionExampleScenario.node[93].veinsmobility  co2emission  ETV
vector 56743  IntersectionExampleScenario.node[94].veinsmobility  posx  ETV
vector 56744  IntersectionExampleScenario.node[94].veinsmobility  posy  ETV
vector 56745  IntersectionExampleScenario.node[94].veinsmobility  speed  ETV
vector 56746  IntersectionExampleScenario.node[94].veinsmobility  acceleration  ETV
vector 56747  IntersectionExampleScenario.node[94].veinsmobility  co2emission  ETV
vector 56750  IntersectionExampleScenario.node[95].veinsmobility  posx  ETV
vector 56751  IntersectionExampleScenario.node[95].veinsmobility  posy  ETV
vector 56752  IntersectionExampleScenario.node[95].veinsmobility  speed  ETV
vector 56753  IntersectionExampleScenario.node[95].veinsmobility  acceleration  ETV
vector 56754  IntersectionExampleScenario.node[95].veinsmobility  co2emission  ETV
56607	2555372 8139 19524 25949 153.75 222.5 276 0.973 11.36141391502 624.31216553655 2937.0399440636
56606	2563511 8018 19524 25949 153.75 222.5 276 -9.8962478637695 4 36.98334312439 512.63792199185
56605	2571529 8158 19485 25949 153.5 222.5 277 0 15.25 2175.6008825302 27353.673654104
56604	2579687 9724 19445 25949 153.25 222.5 278 486.63604736328 785.82187652588 152133.6062851 85376925.727541
56603	2589411 9669 19445 25949 153.25 222.5 278 237.36993408203 483.14999389648 125991.84991455 58212043.522291
56621	2599080 7129 21379 26135 168.75 224.25 223 0.973 12.099024792222 602.20705968562 3114.201053373
56620	2606209 7509 21379 26135 168.75 224.25 223 -3.7114894390106 2.5 41.227170944214 343.32179640894
56619	2613718 7551 21354 26135 168.5 224.25 224 0 16.27499961853 2190.8937112018 29785.668983137
56618	2621269 7863 21329 26135 168.25 224.25 225 486.85000610352 785.82187652588 124922.96121979 71241579.449656
56617	2629132 7871 21329 26135 168.25 224.25 225 235.43225097656 483.14999389648 100757.15866089 46143564.094872
vector 56757  IntersectionExampleScenario.node[96].veinsmobility  posx  ETV
vector 56758  IntersectionExampleScenario.node[96].veinsmobility  posy  ETV
[...]
vector 61688  IntersectionExampleScenario.node[800].veinsmobility  acceleration  ETV
vector 61689  IntersectionExampleScenario.node[800].veinsmobility  co2emission  ETV
vector 61694  IntersectionExampleScenario.node[801].veinsmobility  speed  ETV
61556	28310678 6218 231480 238591 1731.75 1776 178 0.973 11.688738374488 535.58636419971 2662.3981743454
61555	28316896 6425 231480 238591 1731.75 1776 178 -4.5 2.5 39.475584030151 290.00592070027
61554	28323321 6440 231447 238591 1731.5 1776 179 5.349732875824 15.706430435181 2214.7679409981 29642.8577564
61553	28329761 6660 231414 238591 1731.25 1776 180 486.85000610352 486.85000610352 87633.001098633 42664127.119739
61552	28336421 6585 231414 238591 1731.25 1776 180 237.35424804688 785.82187652588 94166.601997375 53446357.574932
vector 61699  IntersectionExampleScenario.node[802].veinsmobility  posx  ETV
vector 61700  IntersectionExampleScenario.node[802].veinsmobility  posy  ETV
vector 61695  IntersectionExampleScenario.node[801].veinsmobility  acceleration  ETV
vector 61696  IntersectionExampleScenario.node[801].veinsmobility  co2emission  ETV
vector 61701  IntersectionExampleScenario.node[802].veinsmobility  speed  ETV
vector 61702  IntersectionExampleScenario.node[802].veinsmobility  acceleration  ETV
vector 61703  IntersectionExampleScenario.node[802].veinsmobility  co2emission  ETV
61577	28343583 5960 231829 238737 1734.25 1777 172 0.973 11.36141391502 544.40111060128 3138.7350656757
61576	28349543 5858 231829 238737 1734.25 1777 172 -3.0218296051025 2.5 35.964826583862 329.10438192708
61575	28355401 6090 231792 238737 1734 1777 173 5.6500000953674 15.25 2183.8258738518 28737.901887293
61574	28361491 6424 231755 238737 1733.75 1777 174 237.16918945312 483.14999389648 75602.569366455 33824016.310297
61573	28367915 6402 231755 238737 1733.75 1777 174 184.17810058594 483.33074951172 69251.357147217 29345149.450501
61563	28374317 6497 231550 238878 1732.25 1778 184 0.973 10.909273263756 532.16128274188 2506.7893612918
61562	28380814 6749 231550 238878 1732.25 1778 184 -3.6591873168945 2.5 37.153535842896 235.8094593295
61561	28387563 6652 231515 238878 1732 1778 185 5.6500000953674 15.202480316162 2312.0694050789 30665.680746738
61560	28394215 6881 231480 238878 1731.75 1778 186 486.85000610352 486.85000610352 90554.101135254 44086264.690397
61559	28401096 6864 231480 238878 1731.75 1778 186 236.76104736328 809.56562805176 99503.931488037 58048148.466662
vector 61706  IntersectionExampleScenario.node[803].veinsmobility  posx  ETV
vector 61707  IntersectionExampleScenario.node[803].veinsmobility  posy  ETV
vector 61708  IntersectionExampleScenario.node[803].veinsmobility  speed  ETV
vector 61709  IntersectionExampleScenario.node[803].veinsmobility  acceleration  ETV
vector 61710  IntersectionExampleScenario.node[803].veinsmobility  co2emission  ETV
61528	28408366 7268 230823 239161 1726.25 1780 216 0.973 11.648172402475 595.85543497892 2909.3093767248
61527	28415634 6708 230823 239161 1726.25 1780 216 -6.9388580322266 4 39.869146347046 470.0186688025
61526	28422342 7005 230796 239161 1726 1780 217 0 15.64999961853 2176.5397753716 31108.384896777
61525	28429347 8043 230769 239161 1725.75 1780 218 184.17810058594 483.36395263672 90976.734680176 39926018.876639
61524	28437390 8001 230769 239161 1725.75 1780 218 486.85000610352 732.55586242676 114121.25840759 60749388.50632
61542	28445391 7241 231200 239301 1729.5 1781 207 0.973 11.990504229548 591.26562241691 3100.0616294174
61541	28452632 7095 231200 239301 1729.5 1781 207 -4.5 2.5 39.869146347046 442.84263494445
61540	28459727 7326 231169 239301 1729.25 1781 208 0 16.125 2262.5997156221 32386.88298805
61539	28467053 7686 231138 239301 1729 1781 209 172.9296875 733.8204498291 93593.096664429 46260367.345723
61538	28474739 7731 231138 239301 1729 1781 209 486.85000610352 486.85000610352 101751.65127563 49537792.044585
61570	28482470 6833 231720 239594 1733.5 1783.25 200 0.973 11.648172402475 564.98399480486 2877.0362968495
61569	28489303 7155 231720 239594 1733.5 1783.25 200 -3.6104316711426 2.5 38.511121749878 318.13993856516
61568	28496458 7288 231685 239594 1733.25 1783.25 201 1.5994478464127 15.64999961853 2261.498509407 30212.368557974
61567	28503746 7444 231650 239594 1733 1783.25 202 172.35388183594 732.8568572998 89417.565170288 43982531.188237
61566	28511190 7473 231650 239594 1733 1783.25 202 486.85000610352 486.85000610352 98343.70123291 47878631.545484
vector 61713  IntersectionExampleScenario.node[804].veinsmobility  posx  ETV
vector 61714  IntersectionExampleScenario.node[804].veinsmobility  posy  ETV
vector 61720  IntersectionExampleScenario.node[805].veinsmobility  posx  ETV
vector 61721  IntersectionExampleScenario.node[805].veinsmobility  posy  ETV
vector 61715  IntersectionExampleScenario.node[804].veinsmobility  speed  ETV
vector 61722  IntersectionExampleScenario.node[805].veinsmobility  speed  ETV
vector 61716  IntersectionExampleScenario.node[804].veinsmobility  acceleration  ETV
vector 61717  IntersectionExampleScenario.node[804].veinsmobility  co2emission  ETV
vector 61723  IntersectionExampleScenario.node[805].veinsmobility  acceleration  ETV
vector 61724  IntersectionExampleScenario.node[805].veinsmobility  co2emission  ETV
61549	28519475 7668 231447 240360 1731.5 1789.5 233 0.94600815583079 12.353032912318 632.22008049658 3360.0758719812
61548	28527143 7253 231447 240360 1731.5 1789.5 233 -8.2609901428223 4 41.566686630249 520.56095834833
61547	28534396 7344 231414 240360 1731.25 1789.5 234 0 16.625 2211.7325696945 32763.530294344
61546	28541740 8685 231383 240360 1731 1789.5 235 236.96490478516 785.82187652588 120848.04955292 66170820.009958
61545	28550425 8694 231383 240360 1731 1789.5 235 483.14999389648 483.14999389648 113540.24856567 54856970.40151
vector 61727  IntersectionExampleScenario.node[806].veinsmobility  posx  ETV
vector 61728  IntersectionExampleScenario.node[806].veinsmobility  posy  ETV
vector 61729  IntersectionExampleScenario.node[806].veinsmobility  speed  ETV
vector 61730  IntersectionExampleScenario.node[806].veinsmobility  acceleration  ETV
vector 61731  IntersectionExampleScenario.node[806].veinsmobility  co2emission  ETV
61591	28559525 7622 232371 240788 1737.75 1793.25 223 0.973 11.200708441096 568.18655711073 2679.0067025719
61590	28567147 7969 232371 240788 1737.75 1793.25 223 -3.8469634056091 2.5000019073486 36.643835067749 322.79093684437
61589	28575116 8083 232330 240788 1737.5 1793.25 224 0 15.02499961853 2208.4209186696 28982.986275717
61588	28583199 8300 232289 240788 1737.25 1793.25 225 238.26776123047 785.82187652588 116809.34372711 64850963.321042
61587	28591499 8326 232289 240788 1737.25 1793.25 225 483.14999389648 483.14999389648 108708.74862671 52522631.235489
61598	28599825 7508 232625 240913 1739.25 1794.5 222 0.973 12.034538847643 628.59314873529 3122.5528167793
61597	28607333 8025 232625 240913 1739.25 1794.5 222 -4.5 2.5000038146973 41.999303817749 408.77922794659
61596	28615358 8086 232580 240913 1739 1794.5 223 0.9404484629631 16.185878753662 2299.5971998572 31042.597390689
61595	28623444 8270 232535 240913 1738.75 1794.5 224 236.29791259766 806.11563110352 118699.01882172 67476981.627986
61594	28631714 8288 232535 240913 1738.75 1794.5 224 483.14999389648 483.14999389648 108225.59863281 52289197.318887
61619	28640002 7987 232818 241224 1740.25 1797.75 231 0.973 11.450879080643 595.63593296874 2795.3515121906
61618	28647989 8214 232818 241224 1740.25 1797.75 231 -4.5 2.5000009536743 37.15309715271 364.21985718647
61617	28656203 8296 232769 241224 1740 1797.75 232 0.65529745817184 15.375 2345.5764152408 30166.274934861
61616	28664499 8606 232719 241224 1739.75 1797.75 233 482.9284362793 818.14376068115 133254.36099243 78727671.254017
61615	28673105 8616 232719 241224 1739.75 1797.75 233 483.14999389648 735.14692687988 121269.16767883 64253491.567625
vector 61734  IntersectionExampleScenario.node[807].veinsmobility  posx  ETV
vector 61735  IntersectionExampleScenario.node[807].veinsmobility  posy  ETV
vector 61741  IntersectionExampleScenario.node[808].veinsmobility  posx  ETV
vector 61742  IntersectionExampleScenario.node[808].veinsmobility  posy  ETV
vector 61736  IntersectionExampleScenario.node[807].veinsmobility  speed  ETV
vector 61737  IntersectionExampleScenario.node[807].veinsmobility  acceleration  ETV
vector 61738  IntersectionExampleScenario.node[807].veinsmobility  co2emission  ETV
vector 61743  IntersectionExampleScenario.node[808].veinsmobility  speed  ETV
vector 61744  IntersectionExampleScenario.node[808].veinsmobility  acceleration  ETV
vector 61745  IntersectionExampleScenario.node[808].veinsmobility  co2emission  ETV
61584	28682533 8388 232055 241381 1735.75 1799.5 256 0.973 11.450879080643 637.58986598272 3049.9822390097
61583	28690921 8109 232055 241381 1735.75 1799.5 256 -8.4845294952393 4 36.98334312439 529.20266573683
61582	28699030 8291 232016 241381 1735.5 1799.5 257 0 15.375 2298.0391383171 30409.907167736
61581	28707321 9547 231977 241381 1735.25 1799.5 258 486.85000610352 486.85000610352 125607.30157471 61151915.538292
61580	28716868 9528 231977 241381 1735.25 1799.5 258 237.32635498047 808.0074005127 134844.5843277 75265222.088115
61605	28726396 8028 232625 241406 1739.25 1799.75 243 0.973 11.36141391502 590.30733049058 2794.9216297576
61604	28734424 7604 232625 241406 1739.25 1799.75 243 -26.44499206543 4 36.304327011108 1044.2713902168
61603	28742028 7644 232580 241406 1739 1799.75 244 0 15.25 2181.4630451202 29825.369994096
61602	28749672 8992 232535 241406 1738.75 1799.75 245 235.79516601562 483.14999389648 109854.17855835 50362970.869038
61601	28758664 9041 232535 241406 1738.75 1799.75 245 184.17810058594 483.36395263672 103269.53857422 45591667.397165
61612	28767705 7828 232719 241432 1739.75 1800 242 0.973 11.54047740176 621.88048475913 3014.1719635365
61611	28775533 7718 232719 241432 1739.75 1800 242 -4.5 2.5 38.658391952515 432.70467797362
61610	28783251 7953 232672 241432 1739.5 1800 243 0 16.279693603516 2246.2587208897 31693.629175968
61609	28791204 9028 232625 241432 1739.25 1800 244 486.85000610352 486.85000610352 118791.40148926 57833594.54009
61608	28800232 9010 232625 241432 1739.25 1800 244 245.96984863281 803.11464691162 128333.61209869 71753641.127778
61626	28809242 7414 233578 241432 1744.25 1800 224 0.973 9.7789091197553 416.66430124346 1597.4742056347
61625	28816656 8253 233578 241432 1744.25 1800 224 -4.5 2.5 -22.60000038147 359.89956551723
61624	28824909 8114 233531 241432 1744 1800 225 0 14.588350296021 1218.4560537683 12170.000515534
61623	28833023 8336 233484 241432 1743.75 1800 226 504.79797363281 809.82877349854 133127.90266418 80597364.773471
61622	28841359 8361 233484 241432 1743.75 1800 226 483.14999389648 483.14999389648 109191.89862061 52756065.152091
61633	28849720 7560 233864 241432 1745.75 1800 218 0.973 11.810082123732 571.41518447501 2994.2107196451
61632	28857280 7828 233864 241432 1745.75 1800 218 -4.5 2.5 39.699438095093 413.6485580239
61631	28865108 7734 233815 241432 1745.5 1800 219 0 15.875 1938.789935817 26435.774276742
61630	28872842 8131 233766 241432 1745.25 1800 220 486.85000610352 671.69369506836 111688.97619629 57166239.77993
61629	28880973 8123 233766 241432 1745.25 1800 220 486.85000610352 785.82187652588 122794.51906586 70376116.146641
61640	28889096 6641 234113 241432 1747 1800 213 0.973 11.200708441096 408.85768615041 1657.5412574431
61639	28895737 6609 234113 241432 1747 1800 213 -7.1649141311646 2.5 -22.60000038147 432.93109391204
61638	28902346 6851 234062 241432 1746.75 1800 214 0 15.717038154602 1051.6624833345 11450.247244323
61637	28909197 7943 234011 241432 1746.5 1800 215 498.39999389648 762.04876708984 120564.53120422 68954418.374832
61636	28917140 7954 234011 241432 1746.5 1800 215 483.14999389648 483.14999389648 103877.24868774 50188292.069467
61647	28925094 6922 234272 241432 1747.75 1800 210 0.973 10.884035204711 363.87345773809 1279.7137600518
61646	28932016 7839 234272 241432 1747.75 1800 210 -4.5 2.5 -21.757836580276 270.78649456906
61645	28939855 7794 234217 241432 1747.5 1800 211 0 14.924461364746 1183.6660386268 12507.977331054
61644	28947649 7815 234164 241432 1747.25 1800 212 511.9606628418 808.44185638428 125544.98560333 76173492.829916
61643	28955464 7844 234164 241432 1747.25 1800 212 483.14999389648 483.14999389648 102427.79870605 49487990.31966
61654	28963308 7004 234327 241432 1748 1800 209 0.973 11.810082123732 568.01070870782 3042.04848997
61653	28970312 7449 234327 241432 1748 1800 209 -28.376007080078 4 39.034498214722 1273.542063535
61652	28977761 7378 234272 241432 1747.75 1800 210 0 15.875 1717.727457162 21421.54430547
61651	28985139 7805 234217 241432 1747.5 1800 211 486.85000610352 599.67886352539 104528.83950806 51900062.72143
61650	28992944 7782 234217 241432 1747.5 1800 211 486.74487304688 802.70781707764 120909.31752014 71246372.415381
61661	29000726 5412 236348 241432 1759 1800 165 0.973 11.648172402475 475.21697962359 2706.4637612935
61660	29006138 5051 236348 241432 1759 1800 165 -6.7528104782104 4 38.022165298462 463.99328758442
61659	29011189 5208 236309 241432 1758.75 1800 166 0 15.64999961853 1453.5607435703 19586.388712521
61658	29016397 6156 236270 241432 1758.5 1800 167 184.17810058594 486.85000610352 66210.684417725 27940405.318969
61657	29022553 6178 236270 241432 1758.5 1800 167 424.03921508789 486.85000610352 80678.117828369 38998404.733392
61668	29028731 4622 237201 241432 1765.25 1800 140 0.973 11.200708441096 397.57649187601 2136.8100323791
61667	29033353 4816 237201 241432 1765.25 1800 140 -2.4693984985352 2.5 30.89999961853 286.78395257556
61666	29038169 4946 237168 241432 1765 1800 141 1.0704818964005 15.02499961853 1337.2090171576 16081.471661018
61665	29043115 5210 237135 241432 1764.75 1800 142 184.17810058594 483.17156982422 53533.627471924 21578844.299024
61664	29048325 5253 237135 241432 1764.75 1800 142 486.85000610352 522.02850341797 69409.708892822 33933146.518278
61675	29053578 4765 237423 241432 1767 1800 133 0.97223939240464 11.648172402475 441.18422558177 2527.4826730597
61674	29058343 4633 237423 241432 1767 1800 133 -4.0569152832031 2.5 38.681104660034 243.30314398394
61673	29062976 4779 237390 241432 1766.75 1800 134 5.6500000953674 15.64999961853 1843.1308765411 26281.576685434
61672	29067755 4984 237357 241432 1766.5 1800 135 483.14999389648 642.14791870117 68690.126312256 35225777.611187
61671	29072739 4972 237357 241432 1766.5 1800 135 184.17810058594 486.94854736328 51648.312286377 21312253.604335
61682	29077711 4396 237771 241432 1769.75 1800 122 0.973 11.648172402475 401.89554773017 2326.5478754592
61681	29082107 4190 237771 241432 1769.75 1800 122 -3.2068252563477 2.5 38.51393699646 190.47613544565
61680	29086297 4317 237738 241432 1769.5 1800 123 5.6500000953674 15.64999961853 1731.0523509979 24976.252628577
61679	29090614 4588 237705 241432 1769.25 1800 124 483.14999389648 483.14999389648 59910.599243164 28945805.658669
61678	29095202 4564 237705 241432 1769.25 1800 124 169.95465087891 597.5559387207 46744.850830078 19689556.372368
61689	29099766 3367 238556 241432 1775.75 1800 98 0.973 11.015291108198 313.44148410251 1873.0012897701
61688	29103133 3315 238556 241432 1775.75 1800 98 -3.3602600097656 2.5 13.39999961853 227.60922154884
61687	29106448 3523 238523 241432 1775.5 1800 99 5.6500000953674 14.764664649963 1227.5519952774 15754.22387929
61686	29109971 3679 238490 241432 1775.25 1800 100 184.17810058594 485.84805297852 33608.085021973 12191434.650335
61685	29113650 3700 238490 241432 1775.25 1800 100 479.25268554688 486.85000610352 48661.38168335 23679415.649043
61696	29117350 3371 238626 241432 1776.25 1800 96 0.973 10.79910674901 338.75880907429 1910.2077803275
61695	29120721 3366 238626 241432 1776.25 1800 96 -4.5 2.5 22.915407180786 255.47256000062
61694	29124087 3580 238591 241432 1776 1800 97 5.6500000953674 15.487105369568 1245.3192167282 16571.810632018
61693	29127667 3597 238556 241432 1775.75 1800 98 160.43438720703 467.62460327148 30424.296569824 10360986.687339
61692	29131264 3625 238556 241432 1775.75 1800 98 486.85000610352 486.85000610352 47711.300598145 23228246.987413
61703	29134889 3201 238700 241432 1776.75 1800 94 0.973 11.648172402475 277.49573742557 1486.2633418311
61702	29138090 3166 238700 241432 1776.75 1800 94 -7.434983253479 2.5 -22.60000038147 330.47804653716
61701	29141256 3372 238663 241432 1776.5 1800 95 0 15.868193626404 1146.9694275856 16556.112270507
61700	29144628 3552 238626 241432 1776.25 1800 96 483.14999389648 483.14999389648 46382.399414062 22409655.993809
61699	29148180 3532 238626 241432 1776.25 1800 96 184.17810058594 471.60000610352 32707.610961914 12074742.549044
61710	29151712 2997 239021 241432 1779 1800 85 0.973 11.200708441096 255.62050918145 1321.0382954951
61709	29154709 2818 239021 241432 1779 1800 85 -3.3469123840332 2.5 -4.5628471374512 219.53733575374
61708	29157527 3168 238985 241432 1778.75 1800 86 4.5092883110046 15.02499961853 1138.1926665306 15820.028210934
61707	29160695 3218 238948 241432 1778.5 1800 87 486.85000610352 486.85000610352 42355.950531006 20620994.77454
61706	29163913 3209 238948 241432 1778.5 1800 87 502.44357299805 785.82187652588 56337.494194031 37191617.097554
61717	29167122 2201 239748 241432 1784.5 1800 63 0.973 11.648172402475 222.19828195099 1366.656029521
61716	29169323 2234 239748 241432 1784.5 1800 63 -2.1346549987793 2.5 16.847551345825 144.37619098452
61715	29171557 2355 239715 241432 1784.25 1800 64 5.6500000953674 15.64999961853 868.97058391571 12291.617185443
61714	29173912 2398 239682 241432 1784 1800 65 571.88592529297 785.82187652588 44555.672843933 30845869.949193
61713	29176310 2403 239682 241432 1784 1800 65 483.14999389648 483.14999389648 31404.749603271 15173204.579141
61724	29178713 2324 239748 241432 1784.5 1800 63 1.401799857144 11.648172402475 238.45105697917 1447.272830199
61723	29181037 2276 239748 241432 1784.5 1800 63 -0.21891021728516 2.5 39.963521957397 101.87662443967
61722	29183313 2354 239715 241432 1784.25 1800 64 5.6500000953674 15.836194992065 916.47656059265 13595.192571697
61721	29185667 2380 239682 241432 1784 1800 65 184.17810058594 408.04949951172 18548.784332275 5609041.8812358
61720	29188047 2403 239682 241432 1784 1800 65 486.85000610352 486.85000610352 31645.250396729 15406490.348795
61731	29190450 1454 240448 241432 1790.25 1800 40 0.96333723109819 12.099024792222 190.02215726388 1422.4634916892
61730	29191904 1341 240448 241432 1790.25 1800 40 -0.5 2.5 40.211843490601 106.95840838098
61729	29193245 1502 240419 241432 1790 1800 41 5.6500000953674 16.27499961853 560.26367282867 8079.9037438307
61728	29194747 1553 240389 241432 1789.75 1800 42 483.14999389648 483.14999389648 20292.299743652 9804224.4972913
61727	29196300 1534 240389 241432 1789.75 1800 42 184.17810058594 319.03198242188 10173.598510742 2540855.3114336
61738	29197834 148 241356 241432 1799.25 1800 4 5.2162187258585 6.4635356930995 23.356389703243 137.24455235531
61737	29197982 112 241356 241432 1799.25 1800 4 2.4999980926514 2.5 9.9999980926514 24.99999046326
61736	29198094 183 241331 241432 1799 1800 5 5.6500000953674 8.1499996185303 34.5 241.95624880791
61735	29198277 221 241308 241432 1798.75 1800 6 486.85000610352 486.85000610352 2921.1000366211 1422137.570658
61734	29198498 221 241308 241432 1798.75 1800 6 779.54688262939 785.82187652588 4700.0250244141 3681737.9733812
61745	29198719 110 241381 241432 1799.5 1800 3 5.2162187258585 6.0461819274774 16.892854010144 95.467258699338
61744	29198829 74 241381 241432 1799.5 1800 3 2.5 2.5 7.5 18.75
61743	29198903 148 241356 241432 1799.25 1800 4 5.6500000953674 7.5250000953674 26.35000038147 175.53375502586
61742	29199051 183 241331 241432 1799 1800 5 781.35000610352 785.82187652588 3920.4781417847 3074044.631164
61741	29199234 183 241331 241432 1799 1800 5 483.14999389648 483.14999389648 2415.7499694824 1167169.5830109
56081	29199417 643 0 241431 0 1800 31 0 30 715 17465
56082	29200060 662 0 241431 0 1800 31 0 283 4286 819520
