file 27741740 1591464818                                        
version 2
run nodebug-35-20200606-13:29:33-21956
attr configname nodebug
attr datetime 20200606-13:29:33
attr experiment nodebug
attr inifile omnetpp.ini
attr iterationvars ""
attr iterationvars2 $repetition=35
attr measurement ""
attr network "\"org.car2x.veins.modules.application.ExtTraCIScenarioManagerLaunchd.IntersectionExampleScenario\""
attr processid 21956
attr repetition 35
attr replication #35
attr resultdir results
attr runnumber 35
attr seedset 35
param **.coreDebug false
param **.debug false
param *.**.nic.mac1609_4.bitrate 18Mbps
param *.**.nic.mac1609_4.txPower 20mW
param *.**.nic.mac1609_4.useServiceChannel false
param *.**.nic.phy80211p.analogueModels "xmldoc(\"config.xml\")"
param *.**.nic.phy80211p.decider "xmldoc(\"config.xml\")"
param *.**.nic.phy80211p.sensitivity -89dBm
param *.**.nic.phy80211p.thermalNoise -110dBm
param *.**.nic.phy80211p.usePropagationDelay true
param *.**.nic.phy80211p.useThermalNoise true
param *.annotations.draw false
param *.connectionManager.alpha 2.0
param *.connectionManager.carrierFrequency "5.890e9 Hz"
param *.connectionManager.pMax 20mW
param *.connectionManager.sat -89dBm
param *.connectionManager.sendDirect true
param *.manager.autoShutdown true
param *.manager.host "\"localhost\""
param *.manager.launchConfig "xmldoc(\"paramics.launchd.xml\")"
param *.manager.margin 25
param *.manager.moduleDisplayString "\"\""
param *.manager.moduleName "\"node\""
param *.manager.moduleType "\"org.car2x.veins.nodes.Car\""
param *.manager.port 9999
param *.manager.updateInterval 250ms
param *.node[*0].veinsmobility.accidentCount 0
param *.node[*0].veinsmobility.accidentDuration 30s
param *.node[*0].veinsmobility.accidentStart 75s
param *.node[*].appl.LiderSelectZoneRadio 55.0
param *.node[*].appl.ShareDataZoneRadio 110.0
param *.node[*].appl.TiempoSemaforo 30.0
param *.node[*].appl.beaconInterval 1s
param *.node[*].appl.beaconPriority 3
param *.node[*].appl.dataOnSch false
param *.node[*].appl.dataPriority 2
param *.node[*].appl.debug false
param *.node[*].appl.headerLength "256 bit"
param *.node[*].appl.maxOffset 0.005s
param *.node[*].appl.sendBeacons false
param *.node[*].appl.sendData true
param *.node[*].applType "\"Dummy\""
param *.node[*].mobilityType "\"TraCIMobility\""
param *.node[*].mobilityType.debug true
param *.node[*].veinsmobility.x 0
param *.node[*].veinsmobility.y 0
param *.node[*].veinsmobility.z 1.895
param *.node[*].veinsmobilityType "\"org.car2x.veins.modules.mobility.traci.TraCIMobility\""
param *.node[*].veinsmobilityType.debug true
param *.playgroundSizeX 8500m
param *.playgroundSizeY 8500m
param *.playgroundSizeZ 50m
param *.world.use2D false
param *.world.useTorus false

vector 78589  IntersectionExampleScenario.manager  vehiclesinsim  ETV
attr type  int
vector 78590  IntersectionExampleScenario.manager  realtime  ETV
attr type  int
attr unit  s
vector 78593  IntersectionExampleScenario.node[0].veinsmobility  posx  ETV
vector 78594  IntersectionExampleScenario.node[0].veinsmobility  posy  ETV
vector 78595  IntersectionExampleScenario.node[0].veinsmobility  speed  ETV
vector 78596  IntersectionExampleScenario.node[0].veinsmobility  acceleration  ETV
vector 78597  IntersectionExampleScenario.node[0].veinsmobility  co2emission  ETV
vector 78600  IntersectionExampleScenario.node[1].veinsmobility  posx  ETV
vector 78601  IntersectionExampleScenario.node[1].veinsmobility  posy  ETV
vector 78607  IntersectionExampleScenario.node[2].veinsmobility  posx  ETV
vector 78608  IntersectionExampleScenario.node[2].veinsmobility  posy  ETV
vector 78602  IntersectionExampleScenario.node[1].veinsmobility  speed  ETV
vector 78614  IntersectionExampleScenario.node[3].veinsmobility  posx  ETV
vector 78615  IntersectionExampleScenario.node[3].veinsmobility  posy  ETV
vector 78603  IntersectionExampleScenario.node[1].veinsmobility  acceleration  ETV
vector 78604  IntersectionExampleScenario.node[1].veinsmobility  co2emission  ETV
vector 78609  IntersectionExampleScenario.node[2].veinsmobility  speed  ETV
vector 78610  IntersectionExampleScenario.node[2].veinsmobility  acceleration  ETV
vector 78611  IntersectionExampleScenario.node[2].veinsmobility  co2emission  ETV
vector 78616  IntersectionExampleScenario.node[3].veinsmobility  speed  ETV
vector 78617  IntersectionExampleScenario.node[3].veinsmobility  acceleration  ETV
vector 78618  IntersectionExampleScenario.node[3].veinsmobility  co2emission  ETV
vector 78621  IntersectionExampleScenario.node[4].veinsmobility  posx  ETV
vector 78622  IntersectionExampleScenario.node[4].veinsmobility  posy  ETV
vector 78623  IntersectionExampleScenario.node[4].veinsmobility  speed  ETV
vector 78628  IntersectionExampleScenario.node[5].veinsmobility  posx  ETV
vector 78629  IntersectionExampleScenario.node[5].veinsmobility  posy  ETV
vector 78624  IntersectionExampleScenario.node[4].veinsmobility  acceleration  ETV
vector 78625  IntersectionExampleScenario.node[4].veinsmobility  co2emission  ETV
vector 78630  IntersectionExampleScenario.node[5].veinsmobility  speed  ETV
vector 78631  IntersectionExampleScenario.node[5].veinsmobility  acceleration  ETV
vector 78632  IntersectionExampleScenario.node[5].veinsmobility  co2emission  ETV
vector 78635  IntersectionExampleScenario.node[6].veinsmobility  posx  ETV
vector 78636  IntersectionExampleScenario.node[6].veinsmobility  posy  ETV
vector 78637  IntersectionExampleScenario.node[6].veinsmobility  speed  ETV
vector 78642  IntersectionExampleScenario.node[7].veinsmobility  posx  ETV
vector 78643  IntersectionExampleScenario.node[7].veinsmobility  posy  ETV
vector 78638  IntersectionExampleScenario.node[6].veinsmobility  acceleration  ETV
vector 78639  IntersectionExampleScenario.node[6].veinsmobility  co2emission  ETV
vector 78644  IntersectionExampleScenario.node[7].veinsmobility  speed  ETV
vector 78645  IntersectionExampleScenario.node[7].veinsmobility  acceleration  ETV
vector 78646  IntersectionExampleScenario.node[7].veinsmobility  co2emission  ETV
vector 78649  IntersectionExampleScenario.node[8].veinsmobility  posx  ETV
vector 78650  IntersectionExampleScenario.node[8].veinsmobility  posy  ETV
vector 78651  IntersectionExampleScenario.node[8].veinsmobility  speed  ETV
vector 78652  IntersectionExampleScenario.node[8].veinsmobility  acceleration  ETV
vector 78653  IntersectionExampleScenario.node[8].veinsmobility  co2emission  ETV
vector 78656  IntersectionExampleScenario.node[9].veinsmobility  posx  ETV
vector 78657  IntersectionExampleScenario.node[9].veinsmobility  posy  ETV
vector 78658  IntersectionExampleScenario.node[9].veinsmobility  speed  ETV
vector 78659  IntersectionExampleScenario.node[9].veinsmobility  acceleration  ETV
vector 78660  IntersectionExampleScenario.node[9].veinsmobility  co2emission  ETV
vector 78663  IntersectionExampleScenario.node[10].veinsmobility  posx  ETV
vector 78664  IntersectionExampleScenario.node[10].veinsmobility  posy  ETV
vector 78665  IntersectionExampleScenario.node[10].veinsmobility  speed  ETV
vector 78666  IntersectionExampleScenario.node[10].veinsmobility  acceleration  ETV
vector 78667  IntersectionExampleScenario.node[10].veinsmobility  co2emission  ETV
vector 78670  IntersectionExampleScenario.node[11].veinsmobility  posx  ETV
vector 78671  IntersectionExampleScenario.node[11].veinsmobility  posy  ETV
vector 78672  IntersectionExampleScenario.node[11].veinsmobility  speed  ETV
vector 78673  IntersectionExampleScenario.node[11].veinsmobility  acceleration  ETV
vector 78674  IntersectionExampleScenario.node[11].veinsmobility  co2emission  ETV
vector 78677  IntersectionExampleScenario.node[12].veinsmobility  posx  ETV
vector 78678  IntersectionExampleScenario.node[12].veinsmobility  posy  ETV
vector 78679  IntersectionExampleScenario.node[12].veinsmobility  speed  ETV
vector 78680  IntersectionExampleScenario.node[12].veinsmobility  acceleration  ETV
vector 78681  IntersectionExampleScenario.node[12].veinsmobility  co2emission  ETV
vector 78684  IntersectionExampleScenario.node[13].veinsmobility  posx  ETV
vector 78685  IntersectionExampleScenario.node[13].veinsmobility  posy  ETV
vector 78686  IntersectionExampleScenario.node[13].veinsmobility  speed  ETV
vector 78687  IntersectionExampleScenario.node[13].veinsmobility  acceleration  ETV
vector 78688  IntersectionExampleScenario.node[13].veinsmobility  co2emission  ETV
vector 78691  IntersectionExampleScenario.node[14].veinsmobility  posx  ETV
vector 78692  IntersectionExampleScenario.node[14].veinsmobility  posy  ETV
vector 78693  IntersectionExampleScenario.node[14].veinsmobility  speed  ETV
vector 78694  IntersectionExampleScenario.node[14].veinsmobility  acceleration  ETV
vector 78695  IntersectionExampleScenario.node[14].veinsmobility  co2emission  ETV
vector 78698  IntersectionExampleScenario.node[15].veinsmobility  posx  ETV
vector 78699  IntersectionExampleScenario.node[15].veinsmobility  posy  ETV
vector 78700  IntersectionExampleScenario.node[15].veinsmobility  speed  ETV
vector 78701  IntersectionExampleScenario.node[15].veinsmobility  acceleration  ETV
vector 78702  IntersectionExampleScenario.node[15].veinsmobility  co2emission  ETV
vector 78705  IntersectionExampleScenario.node[16].veinsmobility  posx  ETV
vector 78706  IntersectionExampleScenario.node[16].veinsmobility  posy  ETV
vector 78707  IntersectionExampleScenario.node[16].veinsmobility  speed  ETV
vector 78708  IntersectionExampleScenario.node[16].veinsmobility  acceleration  ETV
vector 78709  IntersectionExampleScenario.node[16].veinsmobility  co2emission  ETV
vector 78712  IntersectionExampleScenario.node[17].veinsmobility  posx  ETV
vector 78713  IntersectionExampleScenario.node[17].veinsmobility  posy  ETV
vector 78714  IntersectionExampleScenario.node[17].veinsmobility  speed  ETV
vector 78719  IntersectionExampleScenario.node[18].veinsmobility  posx  ETV
vector 78720  IntersectionExampleScenario.node[18].veinsmobility  posy  ETV
vector 78715  IntersectionExampleScenario.node[17].veinsmobility  acceleration  ETV
vector 78716  IntersectionExampleScenario.node[17].veinsmobility  co2emission  ETV
vector 78726  IntersectionExampleScenario.node[19].veinsmobility  posx  ETV
vector 78727  IntersectionExampleScenario.node[19].veinsmobility  posy  ETV
vector 78721  IntersectionExampleScenario.node[18].veinsmobility  speed  ETV
vector 78722  IntersectionExampleScenario.node[18].veinsmobility  acceleration  ETV
vector 78723  IntersectionExampleScenario.node[18].veinsmobility  co2emission  ETV
vector 78728  IntersectionExampleScenario.node[19].veinsmobility  speed  ETV
vector 78729  IntersectionExampleScenario.node[19].veinsmobility  acceleration  ETV
vector 78730  IntersectionExampleScenario.node[19].veinsmobility  co2emission  ETV
vector 78733  IntersectionExampleScenario.node[20].veinsmobility  posx  ETV
vector 78734  IntersectionExampleScenario.node[20].veinsmobility  posy  ETV
vector 78735  IntersectionExampleScenario.node[20].veinsmobility  speed  ETV
vector 78736  IntersectionExampleScenario.node[20].veinsmobility  acceleration  ETV
vector 78737  IntersectionExampleScenario.node[20].veinsmobility  co2emission  ETV
vector 78740  IntersectionExampleScenario.node[21].veinsmobility  posx  ETV
vector 78741  IntersectionExampleScenario.node[21].veinsmobility  posy  ETV
vector 78747  IntersectionExampleScenario.node[22].veinsmobility  posx  ETV
vector 78748  IntersectionExampleScenario.node[22].veinsmobility  posy  ETV
vector 78742  IntersectionExampleScenario.node[21].veinsmobility  speed  ETV
vector 78743  IntersectionExampleScenario.node[21].veinsmobility  acceleration  ETV
vector 78744  IntersectionExampleScenario.node[21].veinsmobility  co2emission  ETV
vector 78749  IntersectionExampleScenario.node[22].veinsmobility  speed  ETV
vector 78750  IntersectionExampleScenario.node[22].veinsmobility  acceleration  ETV
vector 78751  IntersectionExampleScenario.node[22].veinsmobility  co2emission  ETV
vector 78754  IntersectionExampleScenario.node[23].veinsmobility  posx  ETV
vector 78755  IntersectionExampleScenario.node[23].veinsmobility  posy  ETV
vector 78761  IntersectionExampleScenario.node[24].veinsmobility  posx  ETV
vector 78762  IntersectionExampleScenario.node[24].veinsmobility  posy  ETV
vector 78756  IntersectionExampleScenario.node[23].veinsmobility  speed  ETV
vector 78757  IntersectionExampleScenario.node[23].veinsmobility  acceleration  ETV
vector 78758  IntersectionExampleScenario.node[23].veinsmobility  co2emission  ETV
vector 78763  IntersectionExampleScenario.node[24].veinsmobility  speed  ETV
vector 78764  IntersectionExampleScenario.node[24].veinsmobility  acceleration  ETV
vector 78765  IntersectionExampleScenario.node[24].veinsmobility  co2emission  ETV
78597	12911 4985 12 3499 1.75 41.5 160 0.973 11.648172402475 503.65027164899 2731.3763833604
78596	17896 4658 12 3499 1.75 41.5 160 -3.6179485321045 2.5 38.001859664917 278.0227249038
78595	22554 4868 9 3499 1.5 41.5 161 5.6500000953674 15.64999961853 2180.9299302101 30862.892106752
78594	27422 5214 6 3499 1.25 41.5 162 237.41046142578 483.14999389648 70073.415985107 31233913.262855
78593	32636 5198 6 3499 1.25 41.5 162 184.17810058594 483.14999389648 64407.276550293 27352655.687539
vector 78768  IntersectionExampleScenario.node[25].veinsmobility  posx  ETV
vector 78769  IntersectionExampleScenario.node[25].veinsmobility  posy  ETV
vector 78770  IntersectionExampleScenario.node[25].veinsmobility  speed  ETV
vector 78771  IntersectionExampleScenario.node[25].veinsmobility  acceleration  ETV
vector 78772  IntersectionExampleScenario.node[25].veinsmobility  co2emission  ETV
78604	38235 5073 57 4006 5 44.75 160 0.973 11.200708441096 453.37781023855 2185.5064206722
78603	43308 4657 57 4006 5 44.75 160 -2.9832572937012 2.5 35.285810470581 169.67597455255
78602	47965 5008 50 4006 4.75 44.75 161 5.6500000953674 15.02499961853 2214.9408521652 30956.664971032
78601	52973 5260 45 4006 4.5 44.75 162 486.85000610352 486.85000610352 78869.70098877 38397714.407765
78600	58233 5239 45 4006 4.5 44.75 162 237.01531982422 785.82187652588 84307.404167175 48162491.302789
vector 78775  IntersectionExampleScenario.node[26].veinsmobility  posx  ETV
vector 78776  IntersectionExampleScenario.node[26].veinsmobility  posy  ETV
vector 78782  IntersectionExampleScenario.node[27].veinsmobility  posx  ETV
vector 78783  IntersectionExampleScenario.node[27].veinsmobility  posy  ETV
vector 78777  IntersectionExampleScenario.node[26].veinsmobility  speed  ETV
vector 78778  IntersectionExampleScenario.node[26].veinsmobility  acceleration  ETV
vector 78779  IntersectionExampleScenario.node[26].veinsmobility  co2emission  ETV
vector 78784  IntersectionExampleScenario.node[27].veinsmobility  speed  ETV
vector 78785  IntersectionExampleScenario.node[27].veinsmobility  acceleration  ETV
vector 78786  IntersectionExampleScenario.node[27].veinsmobility  co2emission  ETV
vector 78789  IntersectionExampleScenario.node[28].veinsmobility  posx  ETV
vector 78790  IntersectionExampleScenario.node[28].veinsmobility  posy  ETV
vector 78791  IntersectionExampleScenario.node[28].veinsmobility  speed  ETV
vector 78792  IntersectionExampleScenario.node[28].veinsmobility  acceleration  ETV
vector 78793  IntersectionExampleScenario.node[28].veinsmobility  co2emission  ETV
78646	64675 4881 340 4583 10.75 48.5 152 0.973 11.200708441096 477.70666939943 2338.4054828226
78645	69556 4499 340 4583 10.75 48.5 152 -3.4165840148926 2.5 39.529638290405 187.0776795045
78644	74055 4797 323 4583 10.5 48.5 153 5.6500000953674 15.592131614685 2214.8960285187 32753.326430688
78643	78852 5048 306 4583 10.25 48.5 154 486.85000610352 486.85000610352 74974.900939941 36501530.980221
78642	83900 5034 306 4583 10.25 48.5 154 237.30267333984 785.82187652588 80422.604698181 46078999.647728
vector 78796  IntersectionExampleScenario.node[29].veinsmobility  posx  ETV
vector 78797  IntersectionExampleScenario.node[29].veinsmobility  posy  ETV
vector 78803  IntersectionExampleScenario.node[30].veinsmobility  posx  ETV
vector 78804  IntersectionExampleScenario.node[30].veinsmobility  posy  ETV
vector 78798  IntersectionExampleScenario.node[29].veinsmobility  speed  ETV
vector 78799  IntersectionExampleScenario.node[29].veinsmobility  acceleration  ETV
vector 78800  IntersectionExampleScenario.node[29].veinsmobility  co2emission  ETV
vector 78805  IntersectionExampleScenario.node[30].veinsmobility  speed  ETV
vector 78810  IntersectionExampleScenario.node[31].veinsmobility  posx  ETV
vector 78811  IntersectionExampleScenario.node[31].veinsmobility  posy  ETV
vector 78806  IntersectionExampleScenario.node[30].veinsmobility  acceleration  ETV
vector 78807  IntersectionExampleScenario.node[30].veinsmobility  co2emission  ETV
vector 78812  IntersectionExampleScenario.node[31].veinsmobility  speed  ETV
vector 78813  IntersectionExampleScenario.node[31].veinsmobility  acceleration  ETV
vector 78814  IntersectionExampleScenario.node[31].veinsmobility  co2emission  ETV
78625	90137 5456 133 5196 7 52 181 0.973 11.810082123732 551.27372564183 3006.3620761022
78624	95593 5130 133 5196 7 52 181 -7.2590923309326 4 39.699392318726 483.2396245644
78623	100723 5283 122 5196 6.75 52 182 0 15.875 2056.2437252998 29267.123526212
78622	106006 5959 111 5196 6.5 52 183 214.94219970703 483.36395263672 76845.937530518 33676960.763232
78621	111965 5905 111 5196 6.5 52 183 486.85000610352 733.87629699707 97156.411941528 52548962.339883
vector 78817  IntersectionExampleScenario.node[32].veinsmobility  posx  ETV
vector 78818  IntersectionExampleScenario.node[32].veinsmobility  posy  ETV
vector 78819  IntersectionExampleScenario.node[32].veinsmobility  speed  ETV
vector 78820  IntersectionExampleScenario.node[32].veinsmobility  acceleration  ETV
vector 78821  IntersectionExampleScenario.node[32].veinsmobility  co2emission  ETV
78611	118271 5982 66 5589 5.25 54.25 197 0.973 11.810082123732 602.99530201387 3210.0175106648
78610	124253 5500 66 5589 5.25 54.25 197 -10.342622756958 4.4915709495544 40.887662887573 637.78974747139
78609	129753 5957 57 5589 5 54.25 198 -1.1228927373886 15.904373168945 2185.5814024061 30613.302842673
78608	135710 6434 50 5589 4.75 54.25 199 184.17810058594 483.14999389648 80218.751739502 34432509.476237
78607	142144 6476 50 5589 4.75 54.25 199 486.85000610352 733.74702453613 104803.88975525 56177379.483355
vector 78824  IntersectionExampleScenario.node[33].veinsmobility  posx  ETV
vector 78825  IntersectionExampleScenario.node[33].veinsmobility  posy  ETV
vector 78826  IntersectionExampleScenario.node[33].veinsmobility  speed  ETV
vector 78827  IntersectionExampleScenario.node[33].veinsmobility  acceleration  ETV
vector 78828  IntersectionExampleScenario.node[33].veinsmobility  co2emission  ETV
vector 78831  IntersectionExampleScenario.node[34].veinsmobility  posx  ETV
vector 78832  IntersectionExampleScenario.node[34].veinsmobility  posy  ETV
vector 78833  IntersectionExampleScenario.node[34].veinsmobility  speed  ETV
78618	149253 6346 75 6069 5.5 57 207 0.973 11.810082123732 583.20157147982 2843.9692366396
78617	155599 6266 75 6069 5.5 57 207 -4.5 2.5 38.850629806519 385.77763555847
78616	161865 6495 66 6069 5.25 57 208 0 15.875 2289.9364577364 30573.78417584
78615	168360 6777 57 6069 5 57 209 159.76721191406 483.14999389648 82298.819366455 34908078.405541
78614	175137 6808 57 6069 5 57 209 486.85000610352 735.30693054199 110006.18492126 58938868.443975
vector 78834  IntersectionExampleScenario.node[34].veinsmobility  acceleration  ETV
vector 78835  IntersectionExampleScenario.node[34].veinsmobility  co2emission  ETV
78632	182114 6396 159 6440 7.5 59.25 208 0.973 11.810082123732 596.49349119115 2947.8708377477
78631	188510 6411 159 6440 7.5 59.25 208 -4.5 2.5000019073486 40.252138137817 422.14041718102
78630	194921 6514 146 6440 7.25 59.25 209 1.2101948261261 15.875 2311.8084025383 30980.871896055
78629	201435 6852 133 6440 7 59.25 210 153.83746337891 483.18701171875 82414.607910156 34861380.23575
78628	208287 6858 133 6440 7 59.25 210 486.85000610352 734.59284973145 110352.01986694 59009503.260475
78639	215145 6074 306 6553 10.25 60 200 0.973 11.990504229548 583.16978962688 3061.1752111384
78638	221219 6291 306 6553 10.25 60 200 -4.5 2.5 40.038900375366 342.52623105867
78637	227510 6361 291 6553 10 60 201 3.5325281620026 16.125 2337.5820519924 31488.381453748
78636	233871 6599 276 6553 9.75 60 202 154.30651855469 733.10479736328 86944.186157227 42261267.330187
78635	240470 6627 276 6553 9.75 60 202 486.85000610352 486.85000610352 98343.70123291 47878631.545484
78660	247097 5809 543 6775 13.5 61.5 193 0.973 12.26218747632 587.42386554203 3322.6544752073
78659	252906 5499 543 6775 13.5 61.5 193 -9.2126445770264 4 41.396924972534 526.89483318403
78658	258405 5595 522 6775 13.25 61.5 194 0 16.5 2173.0579602718 31776.319095288
78657	264000 6404 501 6775 13 61.5 195 486.63604736328 785.82187652588 108854.61730194 62636209.593981
78656	270404 6329 501 6775 13 61.5 195 238.51751708984 483.14999389648 86503.278259277 39320448.708217
vector 78838  IntersectionExampleScenario.node[35].veinsmobility  posx  ETV
vector 78839  IntersectionExampleScenario.node[35].veinsmobility  posy  ETV
vector 78840  IntersectionExampleScenario.node[35].veinsmobility  speed  ETV
vector 78841  IntersectionExampleScenario.node[35].veinsmobility  acceleration  ETV
vector 78842  IntersectionExampleScenario.node[35].veinsmobility  co2emission  ETV
vector 78845  IntersectionExampleScenario.node[36].veinsmobility  posx  ETV
vector 78846  IntersectionExampleScenario.node[36].veinsmobility  posy  ETV
vector 78847  IntersectionExampleScenario.node[36].veinsmobility  speed  ETV
vector 78852  IntersectionExampleScenario.node[37].veinsmobility  posx  ETV
vector 78853  IntersectionExampleScenario.node[37].veinsmobility  posy  ETV
vector 78848  IntersectionExampleScenario.node[36].veinsmobility  acceleration  ETV
vector 78849  IntersectionExampleScenario.node[36].veinsmobility  co2emission  ETV
vector 78854  IntersectionExampleScenario.node[37].veinsmobility  speed  ETV
vector 78855  IntersectionExampleScenario.node[37].veinsmobility  acceleration  ETV
vector 78856  IntersectionExampleScenario.node[37].veinsmobility  co2emission  ETV
78667	277936 5601 967 7116 18.5 63.75 182 0.973 11.200708441096 525.51873823697 2636.0185487424
78666	283537 5448 967 7116 18.5 63.75 182 -2.8010292053223 2.5000009536743 36.813589096069 294.60952352269
78665	288985 5869 944 7116 18.25 63.75 183 2.3628768920898 15.02499961853 2214.9336621761 29708.810904418
78664	294854 6040 921 7116 18 63.75 184 236.95306396484 785.82187652588 95830.442390442 54129171.061823
78663	300894 6068 921 7116 18 63.75 184 483.14999389648 483.14999389648 88899.598876953 42951840.6548
vector 78859  IntersectionExampleScenario.node[38].veinsmobility  posx  ETV
vector 78860  IntersectionExampleScenario.node[38].veinsmobility  posy  ETV
vector 78861  IntersectionExampleScenario.node[38].veinsmobility  speed  ETV
vector 78862  IntersectionExampleScenario.node[38].veinsmobility  acceleration  ETV
vector 78863  IntersectionExampleScenario.node[38].veinsmobility  co2emission  ETV
vector 78866  IntersectionExampleScenario.node[39].veinsmobility  posx  ETV
vector 78867  IntersectionExampleScenario.node[39].veinsmobility  posy  ETV
vector 78868  IntersectionExampleScenario.node[39].veinsmobility  speed  ETV
vector 78869  IntersectionExampleScenario.node[39].veinsmobility  acceleration  ETV
vector 78870  IntersectionExampleScenario.node[39].veinsmobility  co2emission  ETV
vector 78873  IntersectionExampleScenario.node[40].veinsmobility  posx  ETV
vector 78874  IntersectionExampleScenario.node[40].veinsmobility  posy  ETV
vector 78875  IntersectionExampleScenario.node[40].veinsmobility  speed  ETV
78688	307996 5237 1843 7959 27.75 69 166 0.973 11.200708441096 514.93397596781 2851.9207841073
78687	313233 4934 1843 7959 27.75 69 166 -3.7373962402344 2.5 35.625318527222 302.07323599191
78686	318167 5208 1816 7959 27.5 69 167 5.6500000953674 15.02499961853 2190.6465568542 29824.909323985
78685	323375 5539 1789 7959 27.25 69 168 486.85000610352 785.82187652588 96122.834114075 56781730.230927
78684	328914 5536 1789 7959 27.25 69 168 235.12945556641 483.14999389648 72506.977813721 32276529.899767
vector 78876  IntersectionExampleScenario.node[40].veinsmobility  acceleration  ETV
vector 78877  IntersectionExampleScenario.node[40].veinsmobility  co2emission  ETV
vector 78880  IntersectionExampleScenario.node[41].veinsmobility  posx  ETV
vector 78881  IntersectionExampleScenario.node[41].veinsmobility  posy  ETV
vector 78882  IntersectionExampleScenario.node[41].veinsmobility  speed  ETV
vector 78883  IntersectionExampleScenario.node[41].veinsmobility  acceleration  ETV
vector 78884  IntersectionExampleScenario.node[41].veinsmobility  co2emission  ETV
78653	335020 6946 463 8323 12.5 71.25 236 0.973 11.648172402475 611.12602763184 2918.0635966999
78652	341966 6225 463 8323 12.5 71.25 236 -22.002101898193 4 37.832105636597 902.91282263291
78651	348191 6589 444 8323 12.25 71.25 237 0 15.64999961853 2281.0880565643 32529.796467358
78650	354780 7825 425 8323 12 71.25 238 486.85000610352 486.85000610352 115870.30145264 56411456.969432
78649	362605 7817 425 8323 12 71.25 238 238.62091064453 805.05782318115 123948.38500977 69165979.933543
78681	370422 5696 1739 8446 26.75 72 182 0.973 11.200708441096 530.78122153575 2625.9966533284
78680	376118 5213 1739 8446 26.75 72 182 -6.8669724464417 4 35.625318527222 445.88497074784
78679	381331 5605 1714 8446 26.5 72 183 0 15.02499961853 2184.6978753805 29568.088125493
78678	386936 6001 1689 8446 26.25 72 184 234.9931640625 483.14999389648 80225.286499023 36002141.275718
78677	392937 6053 1689 8446 26.25 72 184 184.17810058594 483.36395263672 74455.956756592 31993338.892999
vector 78887  IntersectionExampleScenario.node[42].veinsmobility  posx  ETV
vector 78888  IntersectionExampleScenario.node[42].veinsmobility  posy  ETV
vector 78894  IntersectionExampleScenario.node[43].veinsmobility  posx  ETV
vector 78895  IntersectionExampleScenario.node[43].veinsmobility  posy  ETV
vector 78889  IntersectionExampleScenario.node[42].veinsmobility  speed  ETV
78702	399376 5217 2239 8529 31.5 72.5 165 0.973 11.450879080643 522.3167319317 2774.2990421023
78701	404593 4774 2239 8529 31.5 72.5 165 -4.5 2.5000019073486 38.511121749878 334.79619630784
78700	409367 5200 2210 8529 31.25 72.5 166 5.1172728538513 15.375 2209.8500533104 30963.237848101
78699	414567 5503 2181 8529 31 72.5 167 483.14999389648 733.32579040527 89087.511550903 48501413.844586
78698	420070 5487 2181 8529 31 72.5 167 184.17810058594 486.85000610352 66909.820526123 28607812.296039
vector 78890  IntersectionExampleScenario.node[42].veinsmobility  acceleration  ETV
vector 78891  IntersectionExampleScenario.node[42].veinsmobility  co2emission  ETV
vector 78896  IntersectionExampleScenario.node[43].veinsmobility  speed  ETV
vector 78897  IntersectionExampleScenario.node[43].veinsmobility  acceleration  ETV
vector 78898  IntersectionExampleScenario.node[43].veinsmobility  co2emission  ETV
78674	425973 6001 1500 8701 24.25 73.5 198 0.973 11.200708441096 547.65229749634 2640.5262518203
78673	431974 6049 1500 8701 24.25 73.5 198 -2.1841888427734 2.5 37.492597579956 282.29200917738
78672	438023 6446 1475 8701 24 73.5 199 1.4189453125 15.058072090149 2218.8871293068 29334.115143585
78671	444469 6600 1450 8701 23.75 73.5 200 486.85000610352 486.85000610352 97370.001220703 47404585.688598
78670	451069 6582 1450 8701 23.75 73.5 200 235.81719970703 785.82187652588 104087.32593536 58390364.320129
78695	457651 5425 2100 8870 30.25 74.5 178 0.973 12.2799430162 565.22092396078 3069.8094617877
78694	463076 5729 2100 8870 30.25 74.5 178 -3.3743667602539 2.5 43.497785568237 297.46004140742
78693	468805 5736 2073 8870 30 74.5 179 4.8565950393677 16.524446487427 2211.0845975876 30133.797960991
78692	474541 5940 2046 8870 29.75 74.5 180 486.85000610352 486.85000610352 87633.001098633 42664127.119739
78691	480481 5931 2046 8870 29.75 74.5 180 238.19641113281 785.82187652588 94685.344596863 53862110.639652
78709	486412 5398 2416 9075 33 75.75 172 0.973 11.648172402475 593.26324538098 3373.1906603471
78708	491810 5226 2416 9075 33 75.75 172 -4.5 2.5000019073486 40.208654403687 421.8355671733
78707	497036 5403 2386 9075 32.75 75.75 173 5.6500000953674 15.755067825317 2269.4356560707 31705.470475073
78706	502439 5739 2355 9075 32.5 75.75 174 235.59130859375 483.14999389648 75991.250793457 34136316.117228
78705	508178 5711 2355 9075 32.5 75.75 174 163.88433837891 483.14999389648 68128.74005127 28725679.151606
vector 78901  IntersectionExampleScenario.node[44].veinsmobility  posx  ETV
vector 78902  IntersectionExampleScenario.node[44].veinsmobility  posy  ETV
vector 78903  IntersectionExampleScenario.node[44].veinsmobility  speed  ETV
vector 78904  IntersectionExampleScenario.node[44].veinsmobility  acceleration  ETV
vector 78905  IntersectionExampleScenario.node[44].veinsmobility  co2emission  ETV
vector 78908  IntersectionExampleScenario.node[45].veinsmobility  posx  ETV
vector 78909  IntersectionExampleScenario.node[45].veinsmobility  posy  ETV
vector 78910  IntersectionExampleScenario.node[45].veinsmobility  speed  ETV
vector 78911  IntersectionExampleScenario.node[45].veinsmobility  acceleration  ETV
vector 78912  IntersectionExampleScenario.node[45].veinsmobility  co2emission  ETV
vector 78915  IntersectionExampleScenario.node[46].veinsmobility  posx  ETV
vector 78916  IntersectionExampleScenario.node[46].veinsmobility  posy  ETV
vector 78917  IntersectionExampleScenario.node[46].veinsmobility  speed  ETV
vector 78918  IntersectionExampleScenario.node[46].veinsmobility  acceleration  ETV
vector 78919  IntersectionExampleScenario.node[46].veinsmobility  co2emission  ETV
78723	515092 5070 2910 9589 37.25 78.75 167 0.973 11.36141391502 512.47899245345 2941.9579832306
78722	520162 5130 2910 9589 37.25 78.75 167 -3.9631595611572 2.5 37.15309715271 306.03687029963
78721	525292 5239 2877 9589 37 78.75 168 5.6500000953674 15.25 2184.3527007103 29555.294177757
78720	530531 5574 2846 9589 36.75 78.75 169 486.85000610352 733.15757751465 90612.925018311 49538658.298583
78719	536105 5571 2846 9589 36.75 78.75 169 486.85000610352 785.82187652588 96770.345939636 57176448.681748
vector 78922  IntersectionExampleScenario.node[47].veinsmobility  posx  ETV
vector 78923  IntersectionExampleScenario.node[47].veinsmobility  posy  ETV
vector 78924  IntersectionExampleScenario.node[47].veinsmobility  speed  ETV
vector 78925  IntersectionExampleScenario.node[47].veinsmobility  acceleration  ETV
vector 78926  IntersectionExampleScenario.node[47].veinsmobility  co2emission  ETV
78758	542077 4881 3460 9855 41.25 80.25 157 0.973 11.200708441096 468.75625172626 2553.4330575611
78757	546958 4638 3460 9855 41.25 80.25 157 -3.4341926574707 2.5 35.795072555542 248.72448866314
78756	551596 4907 3421 9855 41 80.25 158 5.6500000953674 15.02499961853 2063.554441452 28064.206635903
78755	556503 5244 3384 9855 40.75 80.25 159 237.55084228516 483.14999389648 68341.215148926 30307154.133267
78754	561747 5236 3384 9855 40.75 80.25 159 212.90466308594 483.14999389648 65026.568878174 27968012.379253
vector 78929  IntersectionExampleScenario.node[48].veinsmobility  posx  ETV
vector 78930  IntersectionExampleScenario.node[48].veinsmobility  posy  ETV
vector 78931  IntersectionExampleScenario.node[48].veinsmobility  speed  ETV
78744	567215 5426 3276 10262 40 82.5 171 0.973 10.916047529558 523.11858989233 2542.3419262482
78743	572641 5328 3276 10262 40 82.5 171 -4.5 2.5 38.511121749878 301.70547819413
78742	577969 5372 3239 10262 39.75 82.5 172 5.6500000953674 15.337754249573 2189.7820062637 29745.538362338
78741	583341 5708 3204 10262 39.5 82.5 173 235.84643554688 483.14999389648 75334.264221191 33764941.582735
78740	589049 5701 3204 10262 39.5 82.5 173 184.17810058594 483.28295898438 68098.570098877 28748197.800083
vector 78932  IntersectionExampleScenario.node[48].veinsmobility  acceleration  ETV
vector 78933  IntersectionExampleScenario.node[48].veinsmobility  co2emission  ETV
vector 78936  IntersectionExampleScenario.node[49].veinsmobility  posx  ETV
vector 78937  IntersectionExampleScenario.node[49].veinsmobility  posy  ETV
vector 78943  IntersectionExampleScenario.node[50].veinsmobility  posx  ETV
vector 78944  IntersectionExampleScenario.node[50].veinsmobility  posy  ETV
vector 78938  IntersectionExampleScenario.node[49].veinsmobility  speed  ETV
vector 78939  IntersectionExampleScenario.node[49].veinsmobility  acceleration  ETV
vector 78940  IntersectionExampleScenario.node[49].veinsmobility  co2emission  ETV
vector 78945  IntersectionExampleScenario.node[50].veinsmobility  speed  ETV
vector 78946  IntersectionExampleScenario.node[50].veinsmobility  acceleration  ETV
vector 78947  IntersectionExampleScenario.node[50].veinsmobility  co2emission  ETV
78716	595721 5916 2846 10648 36.75 84.5 192 0.973 11.36141391502 552.73276604097 2775.0298439632
78715	601637 5361 2846 10648 36.75 84.5 192 -7.4570107460022 4 37.32285118103 467.27675203522
78714	606998 5739 2817 10648 36.5 84.5 193 0 15.25 2179.3544102907 30207.236966131
78713	612737 6389 2788 10648 36.25 84.5 194 184.17810058594 483.36395263672 79360.180908203 34360755.276065
78712	619126 6353 2788 10648 36.25 84.5 194 486.85000610352 733.68673706055 102799.72547913 55484373.776088
78730	625479 6332 2943 11157 37.5 87 199 0.973 11.36141391502 566.81670717808 2760.3704600339
78729	631811 6036 2943 11157 37.5 87 199 -4.5 2.5 37.32285118103 444.98925689218
78728	637847 6336 2910 11157 37.25 87 200 0 15.25 2281.5392399691 31238.89061406
78727	644183 6627 2877 11157 37 87 201 161.1796875 483.14999389648 80412.777496338 34446707.220752
78726	650810 6650 2877 11157 37 87 201 486.85000610352 734.51445007324 106267.43255615 57215594.570287
78772	657460 5552 3773 11301 43.25 87.75 179 0.973 12.353032912318 577.65108585996 3178.0568620432
78771	663012 5513 3773 11301 43.25 87.75 179 -3.6175270080566 2.5000009536743 42.245687484741 373.94657542594
78770	668525 5666 3734 11301 43 87.75 180 2.6670973300934 16.625 2230.9470281601 31522.397934091
78769	674191 5986 3694 11301 42.75 87.75 181 179.40655517578 486.85000610352 72919.523742676 31254197.711859
78768	680177 5995 3694 11301 42.75 87.75 181 236.06597900391 486.85000610352 80140.269073486 36462087.12454
78807	686172 5055 4749 11612 49.5 89.5 161 0.973 12.099024792222 552.12339751842 3391.8362975714
78806	691227 4799 4749 11612 49.5 89.5 161 -3.831600189209 2.5 41.227170944214 313.00817155536
78805	696026 5140 4706 11612 49.25 89.5 162 5.6500000953674 16.27499961853 2224.4210300446 31746.82694956
78804	701166 5389 4663 11612 49 89.5 163 184.17810058594 735.02841186523 72664.883575439 36459707.771419
78803	706555 5412 4663 11612 49 89.5 163 486.85000610352 486.85000610352 79356.550994873 38634737.336208
vector 78950  IntersectionExampleScenario.node[51].veinsmobility  posx  ETV
vector 78951  IntersectionExampleScenario.node[51].veinsmobility  posy  ETV
vector 78957  IntersectionExampleScenario.node[52].veinsmobility  posx  ETV
vector 78958  IntersectionExampleScenario.node[52].veinsmobility  posy  ETV
vector 78964  IntersectionExampleScenario.node[53].veinsmobility  posx  ETV
vector 78965  IntersectionExampleScenario.node[53].veinsmobility  posy  ETV
vector 78952  IntersectionExampleScenario.node[51].veinsmobility  speed  ETV
vector 78959  IntersectionExampleScenario.node[52].veinsmobility  speed  ETV
vector 78953  IntersectionExampleScenario.node[51].veinsmobility  acceleration  ETV
vector 78954  IntersectionExampleScenario.node[51].veinsmobility  co2emission  ETV
vector 78960  IntersectionExampleScenario.node[52].veinsmobility  acceleration  ETV
vector 78961  IntersectionExampleScenario.node[52].veinsmobility  co2emission  ETV
vector 78966  IntersectionExampleScenario.node[53].veinsmobility  speed  ETV
vector 78967  IntersectionExampleScenario.node[53].veinsmobility  acceleration  ETV
vector 78968  IntersectionExampleScenario.node[53].veinsmobility  co2emission  ETV
78821	713170 4858 5544 12079 54 92.25 154 0.94600815583079 12.353032912318 528.18901316886 3257.156800397
78820	718028 4733 5544 12079 54 92.25 154 -3.5701942443848 2.5 41.566686630249 291.03940499478
78819	722761 4829 5499 12079 53.75 92.25 155 5.6500000953674 16.625 2201.1748428345 32357.203962769
78818	727590 5166 5454 12079 53.5 92.25 156 184.17810058594 486.85000610352 61986.977478027 26361595.504683
78817	732756 5191 5454 12079 53.5 92.25 156 238.82946777344 486.85000610352 68069.519134521 30604103.240515
vector 78971  IntersectionExampleScenario.node[54].veinsmobility  posx  ETV
vector 78972  IntersectionExampleScenario.node[54].veinsmobility  posy  ETV
78737	738101 6540 3138 12342 39 93.75 220 0.973 11.90022389248 603.12572426492 3125.7285656761
78736	744641 5911 3138 12342 39 93.75 220 -6.9388580322266 4 39.869146347046 486.92859174969
78735	750552 6283 3105 12342 38.75 93.75 221 0 16 2204.3578848839 31907.458465355
78734	756835 7366 3072 12342 38.5 93.75 222 238.82672119141 785.82187652588 114450.64958954 63059834.259626
78733	764201 7378 3072 12342 38.5 93.75 222 483.14999389648 483.14999389648 107259.29864502 51822329.485682
vector 78973  IntersectionExampleScenario.node[54].veinsmobility  speed  ETV
vector 78974  IntersectionExampleScenario.node[54].veinsmobility  acceleration  ETV
vector 78975  IntersectionExampleScenario.node[54].veinsmobility  co2emission  ETV
78751	771826 7348 3313 13726 40.25 102.5 250 0.973 11.90022389248 657.01686290225 3188.8181080712
78750	779174 6764 3313 13726 40.25 102.5 250 -36.68367767334 4 41.057416915894 1711.0302247403
78749	785938 7021 3276 13726 40 102.5 251 0 16 2287.7149934769 32212.267296562
78748	792959 8408 3239 13726 39.75 102.5 252 483.14999389648 734.72703552246 129918.78311157 68082927.427475
78747	801367 8397 3239 13726 39.75 102.5 252 159.76721191406 486.85000610352 103518.3649292 45299788.610103
78786	809764 6780 4268 13796 46.5 103 227 0.973 11.90022389248 610.3455465596 3146.12600096
78785	816544 6403 4268 13796 46.5 103 227 -8.3538455963135 4 39.359884262085 563.78713444424
78784	822947 6444 4229 13796 46.25 103 228 0 16 2212.9344797134 32069.695583351
78783	829391 7656 4190 13796 46 103 229 486.85000610352 486.85000610352 111488.65139771 54278250.613445
78782	837047 7637 4190 13796 46 103 229 236.53356933594 785.82187652588 117737.22214508 64657413.29257
78765	844684 7699 3499 13999 41.5 104.5 253 0.973 11.54047740176 624.45663423432 2670.9446619934
78764	852383 7470 3499 13999 41.5 104.5 253 -4.5 2.5 38.054355621338 462.12863805143
78763	859853 7484 3460 13999 41.25 104.5 254 0 15.5 2347.6137620648 31638.958297237
78762	867337 8527 3421 13999 41 104.5 255 483.14999389648 483.14999389648 123203.2484436 59525648.733554
78761	875864 8496 3421 13999 41 104.5 255 150.68334960938 732.91178894043 111447.62083435 54087419.174604
78814	884360 7004 4839 14164 50 105.75 224 0.973 11.200708441096 571.17396152665 2653.5758453398
78813	891364 7028 4839 14164 50 105.75 224 -3.7709600925446 2.5000009536743 35.795072555542 349.73109721167
78812	898392 7327 4794 14164 49.75 105.75 225 0 15.02499961853 2230.5779390708 29286.829186124
78811	905719 7576 4749 14164 49.5 105.75 226 486.85000610352 735.25538635254 118693.97341919 63437639.721606
78810	913295 7572 4749 14164 49.5 105.75 226 486.82962036133 795.46562957764 126366.82287598 72781141.26899
78849	920867 5514 7038 14229 63.25 106.25 173 0.973 11.200708441096 510.93817848485 2602.3655598308
78848	926381 5323 7038 14229 63.25 106.25 173 -2.0803718566895 2.5 36.813589096069 248.03239229109
78847	931704 5703 7000 14229 63 106.25 174 5.2820925712585 15.02499961853 2210.047618866 29609.189844881
78846	937407 5902 6961 14229 62.75 106.25 175 486.85000610352 486.85000610352 85198.751068115 41479012.477524
78845	943309 5887 6961 14229 62.75 106.25 175 238.58459472656 785.82187652588 91632.643379211 52169749.319341
78800	949196 6865 4706 14291 49.25 106.75 231 0.973 11.882354021962 614.14506205938 3070.0769918699
78799	956061 6610 4706 14291 49.25 106.75 231 -13.957048416138 5.6306858062744 41.300939559937 680.84455104884
78798	962671 6862 4663 14291 49 106.75 232 -1.4076714515686 15.988510131836 2119.2961428016 30036.959821622
78797	969533 7810 4622 14291 48.75 106.75 233 483.14999389648 732.92132568359 120944.45597839 63882241.287786
78796	977343 7809 4622 14291 48.75 106.75 233 205.27416992188 486.86993408203 99160.5675354 43822764.647776
vector 78978  IntersectionExampleScenario.node[55].veinsmobility  posx  ETV
vector 78979  IntersectionExampleScenario.node[55].veinsmobility  posy  ETV
vector 78980  IntersectionExampleScenario.node[55].veinsmobility  speed  ETV
78779	985384 8028 4229 14647 46.25 109.75 255 0.973 10.562040798468 652.72283531702 2938.1425945968
78778	993412 8117 4229 14647 46.25 109.75 255 -4.5 2.5 36.134572982788 469.43147015285
78777	1001529 8415 4190 14647 46 109.75 256 0 14.888339042664 2304.0361939985 29063.08884282
78776	1009944 8629 4153 14647 45.75 109.75 257 483.14999389648 735.21891784668 133019.45954895 70031703.921815
78775	1018573 8612 4153 14647 45.75 109.75 257 161.56237792969 486.87976074219 103633.00518799 44453518.891128
vector 78981  IntersectionExampleScenario.node[55].veinsmobility  acceleration  ETV
vector 78982  IntersectionExampleScenario.node[55].veinsmobility  co2emission  ETV
vector 78985  IntersectionExampleScenario.node[56].veinsmobility  posx  ETV
vector 78986  IntersectionExampleScenario.node[56].veinsmobility  posy  ETV
vector 78987  IntersectionExampleScenario.node[56].veinsmobility  speed  ETV
vector 78988  IntersectionExampleScenario.node[56].veinsmobility  acceleration  ETV
vector 78989  IntersectionExampleScenario.node[56].veinsmobility  co2emission  ETV
vector 78992  IntersectionExampleScenario.node[57].veinsmobility  posx  ETV
vector 78993  IntersectionExampleScenario.node[57].veinsmobility  posy  ETV
78884	1027909 5149 8323 14827 71.25 111.25 161 0.973 11.819365568858 545.67083564686 3325.7154216958
78883	1033058 4921 8323 14827 71.25 111.25 161 -3.3092594146729 2.5 39.359884262085 323.54445176781
78882	1037979 5198 8282 14827 71 111.25 162 5.6500000953674 15.887882232666 2179.5545811653 30663.31773967
78881	1043177 5542 8241 14827 70.75 111.25 163 486.85000610352 732.25764465332 87359.977661133 47732257.863969
78880	1048719 5534 8241 14827 70.75 111.25 163 486.85000610352 785.82187652588 93377.040550232 55226301.066548
vector 78994  IntersectionExampleScenario.node[57].veinsmobility  speed  ETV
vector 78995  IntersectionExampleScenario.node[57].veinsmobility  acceleration  ETV
vector 78996  IntersectionExampleScenario.node[57].veinsmobility  co2emission  ETV
vector 78999  IntersectionExampleScenario.node[58].veinsmobility  posx  ETV
vector 79000  IntersectionExampleScenario.node[58].veinsmobility  posy  ETV
78793	1054654 8186 4466 15014 47.75 112.75 261 0.973 10.916047529558 639.21807278837 2772.6816441671
78792	1062840 8368 4466 15014 47.75 112.75 261 -4.5 2.5000019073486 37.861814498901 447.27010007181
78791	1071208 8502 4426 15014 47.5 112.75 262 0 14.827201843262 2316.5935608447 28304.43828856
78790	1079710 8858 4385 15014 47.25 112.75 263 235.05657958984 483.14999389648 118372.4140625 54425470.525572
78789	1088568 8839 4385 15014 47.25 112.75 263 152.53350830078 483.15447998047 104244.16870117 44122515.196327
vector 79001  IntersectionExampleScenario.node[58].veinsmobility  speed  ETV
vector 79002  IntersectionExampleScenario.node[58].veinsmobility  acceleration  ETV
vector 79003  IntersectionExampleScenario.node[58].veinsmobility  co2emission  ETV
vector 79006  IntersectionExampleScenario.node[59].veinsmobility  posx  ETV
vector 79007  IntersectionExampleScenario.node[59].veinsmobility  posy  ETV
vector 79008  IntersectionExampleScenario.node[59].veinsmobility  speed  ETV
78856	1097886 6138 7116 15148 63.75 113.75 201 0.96333723109819 12.099024792222 592.95022037622 3325.8328358563
78855	1104024 6459 7116 15148 63.75 113.75 201 -2.6300659179688 2.5 41.758092880249 347.53672085189
78854	1110483 6547 7077 15148 63.5 113.75 202 2.0526421070099 16.27499961853 2177.5499517918 28085.188987226
78853	1117030 6881 7038 15148 63.25 113.75 203 238.94879150391 483.14999389648 90100.191009521 40974820.024136
78852	1123911 6855 7038 15148 63.25 113.75 203 184.17810058594 483.14999389648 81897.507476807 34807427.057613
vector 79009  IntersectionExampleScenario.node[59].veinsmobility  acceleration  ETV
vector 79010  IntersectionExampleScenario.node[59].veinsmobility  co2emission  ETV
78828	1130935 7318 5725 15446 55 116 245 0.973 11.810082123732 633.06423961335 3148.7293969129
78827	1138253 6971 5725 15446 55 116 245 -7.6745986938477 4 39.699392318726 510.14679181893
78826	1145224 6945 5680 15446 54.75 116 246 0 15.875 2269.8571200371 32636.640853876
78825	1152169 8324 5634 15446 54.5 116 247 162.00311279297 483.36395263672 102775.78616333 45208706.765125
78824	1160493 8286 5634 15446 54.5 116 247 486.85000610352 733.87629699707 128314.81233215 67718429.760235
78835	1168779 7619 6112 15571 57.25 117 240 0.973 11.648172402475 634.73318025431 3071.5705481816
78834	1176398 7373 6112 15571 57.25 117 240 -4.5 2.5 39.699392318726 460.70154280309
78833	1183771 7614 6069 15571 57 117 241 0 15.64999961853 2327.6227657357 33353.283446726
78832	1191385 8135 6026 15571 56.75 117 242 156.20465087891 733.06507873535 107518.43457031 52527359.198176
78831	1199520 8198 6026 15571 56.75 117 242 486.85000610352 486.85000610352 117817.70147705 57359548.683204
vector 79013  IntersectionExampleScenario.node[60].veinsmobility  posx  ETV
vector 79014  IntersectionExampleScenario.node[60].veinsmobility  posy  ETV
vector 79015  IntersectionExampleScenario.node[60].veinsmobility  speed  ETV
vector 79020  IntersectionExampleScenario.node[61].veinsmobility  posx  ETV
vector 79021  IntersectionExampleScenario.node[61].veinsmobility  posy  ETV
vector 79016  IntersectionExampleScenario.node[60].veinsmobility  acceleration  ETV
vector 79017  IntersectionExampleScenario.node[60].veinsmobility  co2emission  ETV
vector 79027  IntersectionExampleScenario.node[62].veinsmobility  posx  ETV
vector 79028  IntersectionExampleScenario.node[62].veinsmobility  posy  ETV
vector 79022  IntersectionExampleScenario.node[61].veinsmobility  speed  ETV
vector 79023  IntersectionExampleScenario.node[61].veinsmobility  acceleration  ETV
vector 79024  IntersectionExampleScenario.node[61].veinsmobility  co2emission  ETV
vector 79029  IntersectionExampleScenario.node[62].veinsmobility  speed  ETV
vector 79030  IntersectionExampleScenario.node[62].veinsmobility  acceleration  ETV
vector 79031  IntersectionExampleScenario.node[62].veinsmobility  co2emission  ETV
78842	1208921 7216 6887 15867 62.25 119.25 229 0.973 11.90022389248 621.17425626068 3162.5157636498
78841	1216137 7348 6887 15867 62.25 119.25 229 -3.8661048412323 2.5 41.227170944214 379.78255929468
78840	1223485 7519 6850 15867 62 119.25 230 0 16.010820388794 2260.3106450122 31409.188478926
78839	1231004 7829 6812 15867 61.75 119.25 231 171.65570068359 486.85000610352 95095.114074707 41263061.787959
78838	1238833 7850 6812 15867 61.75 119.25 231 236.26690673828 486.85000610352 104373.09393311 48224100.328473
vector 79034  IntersectionExampleScenario.node[63].veinsmobility  posx  ETV
vector 79035  IntersectionExampleScenario.node[63].veinsmobility  posy  ETV
vector 79036  IntersectionExampleScenario.node[63].veinsmobility  speed  ETV
vector 79037  IntersectionExampleScenario.node[63].veinsmobility  acceleration  ETV
vector 79038  IntersectionExampleScenario.node[63].veinsmobility  co2emission  ETV
78870	1247084 6932 7681 16332 67.25 122.75 223 0.973 11.648172402475 586.04778648235 2969.8759988096
78869	1254016 7065 7681 16332 67.25 122.75 223 -3.989369392395 2.5 38.341367721558 373.62237642455
78868	1261081 7318 7640 16332 67 122.75 224 0 15.64999961853 2205.6040246673 28561.079900262
78867	1268399 7667 7599 16332 66.75 122.75 225 179.40374755859 483.18237304688 91804.730834961 39380431.814522
78866	1276066 7671 7599 16332 66.75 122.75 225 486.85000610352 733.75556945801 117773.74160767 62696148.526327
vector 79041  IntersectionExampleScenario.node[64].veinsmobility  posx  ETV
vector 79042  IntersectionExampleScenario.node[64].veinsmobility  posy  ETV
vector 79043  IntersectionExampleScenario.node[64].veinsmobility  speed  ETV
vector 79044  IntersectionExampleScenario.node[64].veinsmobility  acceleration  ETV
vector 79045  IntersectionExampleScenario.node[64].veinsmobility  co2emission  ETV
78891	1284138 6363 8572 16463 72.75 123.75 205 0.973 11.648172402475 552.43292029926 2859.6082207911
78890	1290501 6687 8572 16463 72.75 123.75 205 -3.3222999572754 2.5 37.662351608276 324.73624509713
78889	1297188 6822 8529 16463 72.5 123.75 206 2.0168399810791 15.64999961853 2220.00309515 28850.280704229
78888	1304010 7065 8487 16463 72.25 123.75 207 184.17810058594 733.88714599609 91966.621826172 45076842.577941
78887	1311075 7100 8487 16463 72.25 123.75 207 486.85000610352 486.85003662109 100777.95129395 49063746.217414
78877	1318175 6966 8000 16757 69.25 126 228 0.973 11.810082123732 619.80317732985 3209.424179575
78876	1325141 6265 8000 16757 69.25 126 228 -7.544303894043 4 39.869146347046 522.12390169883
78875	1331406 6618 7959 16757 69 126 229 0 15.875 2182.114887476 31360.355807279
78874	1338024 7864 7918 16757 68.75 126 230 486.63604736328 785.82187652588 126455.14046478 71519148.413533
78873	1345888 7805 7918 16757 68.75 126 230 235.62799072266 483.14999389648 103049.73843384 47214573.415244
78898	1353693 7084 8615 17035 73 128.25 222 0.973 11.093806525473 558.7418991316 2554.0245085561
78897	1360777 7210 8615 17035 73 128.25 222 -3.9247572422028 2.5000019073486 34.77654838562 328.2687870644
78896	1367987 7507 8572 17035 72.75 128.25 223 0 14.875 2253.3001943696 29346.670831555
78895	1375494 7672 8529 17035 72.5 128.25 224 235.00439453125 793.78281402588 116503.50504303 65161073.379588
78894	1383166 7695 8529 17035 72.5 128.25 224 483.14999389648 483.14999389648 108225.59863281 52289197.318887
78912	1390861 6720 9414 17296 77.75 130.5 212 0.973 11.36141391502 581.04156781383 2794.853318018
78911	1397581 6794 9414 17296 77.75 130.5 212 -4.4831352233887 2.5 38.341367721558 395.25954218824
78910	1404375 7008 9371 17296 77.5 130.5 213 0 15.255969047546 2205.622733593 28758.580663746
78909	1411383 7364 9328 17296 77.25 130.5 214 486.85000610352 790.60917663574 120499.43108368 69780898.56753
78908	1418747 7380 9328 17296 77.25 130.5 214 236.11730957031 483.14999389648 95152.669219971 43343269.239175
78968	1426127 5126 12034 17354 92 131 157 0.973 12.80944146078 594.57899548061 4057.8511682286
78967	1431253 4838 12034 17354 92 131 157 -3.9556350708008 2.5 44.622243881226 379.80593683289
78966	1436091 5178 11989 17354 91.75 131 158 5.6500000953674 17.25 2200.9938116074 32259.508373193
78965	1441269 5512 11944 17354 91.5 131 159 482.93740844727 785.82187652588 91059.521110535 53849072.651278
78964	1446781 5523 11944 17354 91.5 131 159 483.14999389648 731.40835571289 84379.935043335 45667192.302206
vector 79048  IntersectionExampleScenario.node[65].veinsmobility  posx  ETV
vector 79049  IntersectionExampleScenario.node[65].veinsmobility  posy  ETV
vector 79050  IntersectionExampleScenario.node[65].veinsmobility  speed  ETV
vector 79055  IntersectionExampleScenario.node[66].veinsmobility  posx  ETV
vector 79056  IntersectionExampleScenario.node[66].veinsmobility  posy  ETV
vector 79051  IntersectionExampleScenario.node[65].veinsmobility  acceleration  ETV
vector 79052  IntersectionExampleScenario.node[65].veinsmobility  co2emission  ETV
vector 79057  IntersectionExampleScenario.node[66].veinsmobility  speed  ETV
vector 79058  IntersectionExampleScenario.node[66].veinsmobility  acceleration  ETV
vector 79059  IntersectionExampleScenario.node[66].veinsmobility  co2emission  ETV
vector 79062  IntersectionExampleScenario.node[67].veinsmobility  posx  ETV
vector 79063  IntersectionExampleScenario.node[67].veinsmobility  posy  ETV
vector 79064  IntersectionExampleScenario.node[67].veinsmobility  speed  ETV
vector 79065  IntersectionExampleScenario.node[67].veinsmobility  acceleration  ETV
vector 79066  IntersectionExampleScenario.node[67].veinsmobility  co2emission  ETV
vector 79069  IntersectionExampleScenario.node[68].veinsmobility  posx  ETV
vector 79070  IntersectionExampleScenario.node[68].veinsmobility  posy  ETV
vector 79071  IntersectionExampleScenario.node[68].veinsmobility  speed  ETV
vector 79072  IntersectionExampleScenario.node[68].veinsmobility  acceleration  ETV
vector 79073  IntersectionExampleScenario.node[68].veinsmobility  co2emission  ETV
78863	1453908 8627 7237 17964 64.5 136 287 0.973 10.815604578708 660.30492961691 2808.6327838046
78862	1462535 8271 7237 17964 64.5 136 287 -9.9711570739746 4 33.758031845093 657.15577919348
78861	1470806 8622 7196 17964 64.25 136 288 0 14.483420372009 2269.5360445976 27750.847845282
78860	1479428 9888 7155 17964 64 136 289 483.14999389648 732.20358276367 148611.78509521 77635184.640581
78859	1489316 9875 7155 17964 64 136 289 161.1796875 486.85000610352 119759.9982605 52321311.975844
78926	1499191 7394 9765 18058 79.75 136.75 229 0.973 11.765397277231 632.42192903327 3477.7440613307
78925	1506585 7286 9765 18058 79.75 136.75 229 -4.5 2.5000004768372 38.171613693237 486.13722537688
78924	1513871 7653 9720 18058 79.5 136.75 230 0 15.812964439392 2181.2202445716 29823.344244713
78923	1521524 7989 9675 18058 79.25 136.75 231 237.42938232422 483.14999389648 103438.05178833 47363225.784006
78922	1529513 7938 9675 18058 79.25 136.75 231 184.17810058594 483.14999389648 96280.933441162 42087851.382628
78947	1537451 6791 10648 18244 84.5 138.25 216 0.973 11.990504229548 611.51147356841 3052.8956396895
78946	1544242 6309 10648 18244 84.5 138.25 216 -4.5 2.5 41.566686630249 470.09228284081
78945	1550551 6653 10597 18244 84.25 138.25 217 0 16.125 2305.6800144911 33050.51235496
78944	1557204 7565 10546 18244 84 138.25 218 486.85000610352 486.85000610352 106133.30133057 51670998.400572
78943	1564769 7544 10546 18244 84 138.25 218 238.66436767578 810.23281097412 115488.76979065 65808494.255486
78940	1572313 6944 10597 18334 84.25 139 220 0.973 10.916047529558 559.19128875174 2539.4745662563
78939	1579257 6339 10597 18334 84.25 139 220 -7.1268091201782 4 34.437047958374 462.3156143962
78938	1585596 6751 10546 18334 84 139 221 0 14.625 2180.0836098194 29017.440880541
78937	1592347 7699 10497 18334 83.75 139 222 486.85000610352 733.47009277344 116811.43824768 62554358.56037
78936	1600046 7691 10497 18334 83.75 139 222 486.75677490234 785.82187652588 123147.74621582 70332272.362784
vector 79076  IntersectionExampleScenario.node[69].veinsmobility  posx  ETV
vector 79077  IntersectionExampleScenario.node[69].veinsmobility  posy  ETV
vector 79078  IntersectionExampleScenario.node[69].veinsmobility  speed  ETV
vector 79079  IntersectionExampleScenario.node[69].veinsmobility  acceleration  ETV
vector 79080  IntersectionExampleScenario.node[69].veinsmobility  co2emission  ETV
78954	1608138 6514 11989 18745 91.75 142.5 204 0.973 11.200708441096 552.75300739829 2685.478067407
78953	1614652 6610 11989 18745 91.75 142.5 204 -2.7954437732697 2.5 36.98334312439 333.01265353634
78952	1621262 6828 11944 18745 91.5 142.5 205 0 15.02499961853 2180.3858487159 28360.640332685
78951	1628090 7168 11901 18745 91.25 142.5 206 486.85000610352 732.09211730957 108583.5194397 58253349.08142
78950	1635258 7156 11901 18745 91.25 142.5 206 486.85000610352 785.82187652588 115822.94327545 66975110.532564
vector 79083  IntersectionExampleScenario.node[70].veinsmobility  posx  ETV
vector 79084  IntersectionExampleScenario.node[70].veinsmobility  posy  ETV
vector 79085  IntersectionExampleScenario.node[70].veinsmobility  speed  ETV
vector 79086  IntersectionExampleScenario.node[70].veinsmobility  acceleration  ETV
vector 79087  IntersectionExampleScenario.node[70].veinsmobility  co2emission  ETV
vector 79090  IntersectionExampleScenario.node[71].veinsmobility  posx  ETV
vector 79091  IntersectionExampleScenario.node[71].veinsmobility  posy  ETV
78975	1642969 6624 12432 18980 94.25 144.5 202 0.973 11.450879080643 574.00910613337 2902.809369056
78974	1649593 6506 12432 18980 94.25 144.5 202 -4.5 2.5 37.15309715271 405.94450918317
78973	1656099 6795 12387 18980 94 144.5 203 3.5276966094971 15.375 2268.6707098484 29325.540813351
78972	1662894 7104 12342 18980 93.75 144.5 204 237.34979248047 486.85000610352 90787.067047119 41465378.452394
78971	1669998 7090 12342 18980 93.75 144.5 204 483.14999389648 801.41563415527 116438.10832977 68557977.105941
vector 79092  IntersectionExampleScenario.node[71].veinsmobility  speed  ETV
vector 79093  IntersectionExampleScenario.node[71].veinsmobility  acceleration  ETV
vector 79094  IntersectionExampleScenario.node[71].veinsmobility  co2emission  ETV
78905	1677335 8613 9202 19413 76.5 148.25 288 0.973 11.648172402475 685.74885006083 3277.9290933789
78904	1685948 8225 9202 19413 76.5 148.25 288 -7.3373937606812 4 38.511121749878 609.45889766469
78903	1694173 8622 9159 19413 76.25 148.25 289 0 15.64999961853 2247.1573593616 29339.191941044
78902	1702795 10003 9116 19413 76 148.25 290 176.21716308594 733.9766998291 130721.73558044 63333814.172463
78901	1712798 10032 9116 19413 76 148.25 290 486.85000610352 486.85003662109 141186.50183105 68736649.307898
78919	1722830 8455 9546 19548 78.5 149.5 285 0.973 11.648172402475 674.42578070016 3132.8331771658
78918	1731285 8642 9546 19548 78.5 149.5 285 -4.5 2.5 40.378400802612 434.76228652813
78917	1739927 8775 9502 19548 78.25 149.5 286 0 15.790727615356 2297.9710889235 29838.567894411
78916	1748702 9909 9457 19548 78 149.5 287 162.09765625 731.83744812012 126947.68347168 60783553.26434
78915	1758611 9943 9457 19548 78 149.5 287 486.85000610352 486.85003662109 139725.95178223 68025580.492854
vector 79097  IntersectionExampleScenario.node[72].veinsmobility  posx  ETV
vector 79098  IntersectionExampleScenario.node[72].veinsmobility  posy  ETV
vector 79099  IntersectionExampleScenario.node[72].veinsmobility  speed  ETV
vector 79100  IntersectionExampleScenario.node[72].veinsmobility  acceleration  ETV
vector 79101  IntersectionExampleScenario.node[72].veinsmobility  co2emission  ETV
78933	1768955 8673 10309 19810 82.75 152 278 0.97223939240464 11.648172402475 632.16296447222 2913.8556482136
78932	1777628 9348 10309 19810 82.75 152 278 -3.7805559635162 2.5000009536743 38.680875778198 335.83630127508
78931	1786976 9499 10262 19810 82.5 152 279 0 15.64999961853 2281.961362116 28909.005180088
78930	1796475 9693 10215 19810 82.25 152 280 168.77691650391 734.38606262207 123906.41825867 59430869.547991
78929	1806168 9729 10215 19810 82.25 152 280 486.85000610352 486.85000610352 136318.00170898 66366419.964038
78961	1815897 8295 11989 20070 91.75 155 254 0.973 11.810082123732 648.62303024599 3350.8972565354
78960	1824192 8392 11989 20070 91.75 155 254 -4.5 2.5 39.529638290405 468.50219779717
78959	1832584 8556 11944 20070 91.5 155 255 0 15.875 2187.4356920198 29218.613442785
78958	1841140 8881 11901 20070 91.25 155 256 184.17810058594 483.16766357422 106390.45150757 46102775.197148
78957	1850021 8920 11901 20070 91.25 155 256 486.85000610352 733.68202209473 132705.74981689 69861102.253779
vector 79104  IntersectionExampleScenario.node[73].veinsmobility  posx  ETV
vector 79105  IntersectionExampleScenario.node[73].veinsmobility  posy  ETV
vector 79106  IntersectionExampleScenario.node[73].veinsmobility  speed  ETV
vector 79111  IntersectionExampleScenario.node[74].veinsmobility  posx  ETV
vector 79112  IntersectionExampleScenario.node[74].veinsmobility  posy  ETV
vector 79107  IntersectionExampleScenario.node[73].veinsmobility  acceleration  ETV
vector 79108  IntersectionExampleScenario.node[73].veinsmobility  co2emission  ETV
vector 79113  IntersectionExampleScenario.node[74].veinsmobility  speed  ETV
78996	1859574 5944 14890 20228 111.75 157 182 0.973 11.648172402475 561.81343211965 3101.9991934278
78995	1865518 5814 14890 20228 111.75 157 182 -4.5 2.5 38.341367721558 361.89213647032
78994	1871332 6120 14859 20228 111.5 157 183 4.5198922157288 15.64999961853 2203.3512334824 29053.252139427
78993	1877452 6407 14827 20228 111.25 157 184 184.17810058594 486.85000610352 73882.645233154 31466449.665416
78992	1883859 6433 14827 20228 111.25 157 184 237.86566162109 486.85000610352 81238.587768555 36873280.574301
vector 79114  IntersectionExampleScenario.node[74].veinsmobility  acceleration  ETV
vector 79115  IntersectionExampleScenario.node[74].veinsmobility  co2emission  ETV
vector 79118  IntersectionExampleScenario.node[75].veinsmobility  posx  ETV
vector 79119  IntersectionExampleScenario.node[75].veinsmobility  posy  ETV
vector 79120  IntersectionExampleScenario.node[75].veinsmobility  speed  ETV
vector 79121  IntersectionExampleScenario.node[75].veinsmobility  acceleration  ETV
vector 79122  IntersectionExampleScenario.node[75].veinsmobility  co2emission  ETV
78982	1890862 6338 14676 20431 110 159.25 198 0.973 12.553400930962 605.29113468967 3321.7745964312
78981	1897200 6118 14676 20431 110 159.25 198 -8.9821796417236 4 42.924703598022 525.20194999197
78980	1903318 6272 14647 20431 109.75 159.25 199 0 16.89999961853 2178.5624084473 32332.89311958
78979	1909590 6982 14617 20431 109.5 159.25 200 486.6921081543 785.82187652588 111169.21105194 63670812.094698
78978	1916572 6988 14617 20431 109.5 159.25 200 236.42199707031 483.14999389648 88912.94152832 40488169.866674
79010	1923560 6269 15182 20642 114 161.75 192 0.973 10.756497587458 508.34737075217 2362.883252984
79009	1929829 6262 15182 20642 114 161.75 192 -2.2336387634277 2.5 33.248777389526 259.29172081712
79008	1936091 6583 15148 20642 113.75 161.75 193 2.5692045688629 14.39999961853 2241.0799503326 28505.961543492
79007	1942674 6769 15113 20642 113.5 161.75 194 236.40692138672 792.02188110352 101363.3458252 57533642.548034
79006	1949443 6791 15113 20642 113.5 161.75 194 483.14999389648 483.14999389648 93731.098815918 45286179.820821
vector 79125  IntersectionExampleScenario.node[76].veinsmobility  posx  ETV
vector 79126  IntersectionExampleScenario.node[76].veinsmobility  posy  ETV
vector 79127  IntersectionExampleScenario.node[76].veinsmobility  speed  ETV
vector 79128  IntersectionExampleScenario.node[76].veinsmobility  acceleration  ETV
vector 79129  IntersectionExampleScenario.node[76].veinsmobility  co2emission  ETV
vector 79132  IntersectionExampleScenario.node[77].veinsmobility  posx  ETV
vector 79133  IntersectionExampleScenario.node[77].veinsmobility  posy  ETV
vector 79134  IntersectionExampleScenario.node[77].veinsmobility  speed  ETV
vector 79139  IntersectionExampleScenario.node[78].veinsmobility  posx  ETV
vector 79140  IntersectionExampleScenario.node[78].veinsmobility  posy  ETV
vector 79135  IntersectionExampleScenario.node[77].veinsmobility  acceleration  ETV
vector 79136  IntersectionExampleScenario.node[77].veinsmobility  co2emission  ETV
vector 79141  IntersectionExampleScenario.node[78].veinsmobility  speed  ETV
vector 79142  IntersectionExampleScenario.node[78].veinsmobility  acceleration  ETV
vector 79143  IntersectionExampleScenario.node[78].veinsmobility  co2emission  ETV
79038	1957437 5574 16332 20911 122.75 164.75 169 0.973 11.36141391502 561.80617062844 3366.5518698847
79037	1963011 5298 16332 20911 122.75 164.75 169 -3.3778591156006 2.5 37.15309715271 361.66149577465
79036	1968309 5648 16299 20911 122.5 164.75 170 5.6500000953674 15.25 2182.169397831 29311.087853291
79035	1973957 5975 16266 20911 122.25 164.75 171 486.85000610352 785.82187652588 97903.21761322 57816680.685333
79034	1979932 5980 16266 20911 122.25 164.75 171 236.92510986328 483.14999389648 74289.321624756 33232921.388262
vector 79146  IntersectionExampleScenario.node[79].veinsmobility  posx  ETV
vector 79147  IntersectionExampleScenario.node[79].veinsmobility  posy  ETV
vector 79148  IntersectionExampleScenario.node[79].veinsmobility  speed  ETV
vector 79149  IntersectionExampleScenario.node[79].veinsmobility  acceleration  ETV
vector 79150  IntersectionExampleScenario.node[79].veinsmobility  co2emission  ETV
78989	1986313 7151 14796 21204 111 167.75 228 0.973 11.200708441096 575.75685894209 2754.957864717
78988	1993464 6847 14796 21204 111 167.75 228 -7.211236000061 4 35.285810470581 455.85929217544
78987	2000311 6951 14765 21204 110.75 167.75 229 0 15.02499961853 2186.2520873547 29611.601678525
78986	2007262 8047 14734 21204 110.5 167.75 230 483.14999389648 734.40725708008 120030.32804871 63789598.676269
78985	2015309 8026 14734 21204 110.5 167.75 230 184.17810058594 486.85000610352 96364.282806396 42438367.502677
79024	2023335 6264 15832 21204 119 167.75 196 0.96091454747206 12.099024792222 572.66194472292 3179.3288928338
79023	2029599 6505 15832 21204 119 167.75 196 -3.7507126331329 2.5000019073486 41.227170944214 360.30497822367
79022	2036104 6725 15796 21204 118.75 167.75 197 0 16.27499961853 2212.5334964544 30941.636647296
79021	2042829 6931 15761 21204 118.5 167.75 198 483.14999389648 483.14999389648 95663.698791504 46219915.48723
79020	2049760 6861 15761 21204 118.5 167.75 198 184.17810058594 732.29598999023 88845.923324585 43867555.656124
79003	2056621 7021 15080 21229 113.25 168 220 0.973 11.200708441096 570.55384470344 2702.8743369868
79002	2063642 6436 15080 21229 113.25 168 220 -6.8640689849854 4 35.625318527222 451.18975026733
79001	2070078 6825 15047 21229 113 168 221 0 15.02499961853 2216.7832789421 30264.160606425
79000	2076903 7769 15014 21229 112.75 168 222 486.85000610352 486.85000610352 108080.70135498 52619090.114344
78999	2084672 7753 15014 21229 112.75 168 222 235.25030517578 785.82187652588 114112.62067413 62986670.144042
vector 79153  IntersectionExampleScenario.node[80].veinsmobility  posx  ETV
vector 79154  IntersectionExampleScenario.node[80].veinsmobility  posy  ETV
79031	2092579 6490 15867 21304 119.25 168.75 199 0.973 11.450879080643 557.13290375934 2798.9662814012
79030	2099069 6512 15867 21304 119.25 168.75 199 -3.7814884185791 2.5000009536743 38.171613693237 355.95883872315
79029	2105581 6764 15832 21304 119 168.75 200 0 15.375 2214.0918837115 30138.619669707
79028	2112345 7029 15796 21304 118.75 168.75 201 235.06713867188 486.85000610352 89310.011260986 40753574.861682
79027	2119374 7022 15796 21304 118.75 168.75 201 483.13290405273 785.82187652588 112452.43766022 64818777.234419
vector 79155  IntersectionExampleScenario.node[80].veinsmobility  speed  ETV
vector 79156  IntersectionExampleScenario.node[80].veinsmobility  acceleration  ETV
vector 79157  IntersectionExampleScenario.node[80].veinsmobility  co2emission  ETV
vector 79160  IntersectionExampleScenario.node[81].veinsmobility  posx  ETV
vector 79161  IntersectionExampleScenario.node[81].veinsmobility  posy  ETV
vector 79162  IntersectionExampleScenario.node[81].veinsmobility  speed  ETV
vector 79163  IntersectionExampleScenario.node[81].veinsmobility  acceleration  ETV
vector 79164  IntersectionExampleScenario.node[81].veinsmobility  co2emission  ETV
79052	2127044 5040 17612 21578 133.25 171.25 153 0.973 12.099024792222 522.05070122506 3362.901724498
79051	2132084 4916 17612 21578 133.25 171.25 153 -3.1262626647949 2.5 40.038900375366 260.93261268235
79050	2137000 5150 17583 21578 133 171.25 154 5.6500000953674 16.27499961853 2213.8767414093 32566.864567122
79049	2142150 5425 17554 21578 132.75 171.25 155 483.14999389648 483.14999389648 74888.249053955 36182257.073337
79048	2147575 5377 17554 21578 132.75 171.25 155 184.17810058594 732.04664611816 69246.174621582 34973328.594692
79059	2152952 5063 17674 21578 133.75 171.25 151 0.973 12.099024792222 530.64392503062 3258.1298494543
79058	2158015 4991 17674 21578 133.75 171.25 151 -3.3145904541016 2.5 41.057416915894 263.99404446283
79057	2163006 5096 17643 21578 133.5 171.25 152 5.6500000953674 16.404560089111 2216.3276567459 33094.803943718
79056	2168102 5356 17612 21578 133.25 171.25 153 486.85000610352 486.85000610352 74488.050933838 36264508.051778
79055	2173458 5346 17612 21578 133.25 171.25 153 237.2607421875 785.82187652588 80017.05381012 45860845.631117
vector 79167  IntersectionExampleScenario.node[82].veinsmobility  posx  ETV
vector 79168  IntersectionExampleScenario.node[82].veinsmobility  posy  ETV
vector 79169  IntersectionExampleScenario.node[82].veinsmobility  speed  ETV
vector 79174  IntersectionExampleScenario.node[83].veinsmobility  posx  ETV
vector 79175  IntersectionExampleScenario.node[83].veinsmobility  posy  ETV
vector 79170  IntersectionExampleScenario.node[82].veinsmobility  acceleration  ETV
vector 79171  IntersectionExampleScenario.node[82].veinsmobility  co2emission  ETV
vector 79176  IntersectionExampleScenario.node[83].veinsmobility  speed  ETV
vector 79177  IntersectionExampleScenario.node[83].veinsmobility  acceleration  ETV
vector 79178  IntersectionExampleScenario.node[83].veinsmobility  co2emission  ETV
vector 79181  IntersectionExampleScenario.node[84].veinsmobility  posx  ETV
vector 79182  IntersectionExampleScenario.node[84].veinsmobility  posy  ETV
vector 79183  IntersectionExampleScenario.node[84].veinsmobility  speed  ETV
vector 79188  IntersectionExampleScenario.node[85].veinsmobility  posx  ETV
vector 79189  IntersectionExampleScenario.node[85].veinsmobility  posy  ETV
vector 79184  IntersectionExampleScenario.node[84].veinsmobility  acceleration  ETV
vector 79185  IntersectionExampleScenario.node[84].veinsmobility  co2emission  ETV
vector 79190  IntersectionExampleScenario.node[85].veinsmobility  speed  ETV
79073	2180239 5445 17865 22092 135.25 175.5 162 0.973 12.099024792222 544.33897657325 3165.3363841094
79072	2185684 5246 17865 22092 135.25 175.5 162 -4.000415802002 2.5 40.038900375366 314.53956386916
79071	2190930 5373 17832 22092 135 175.5 163 5.6500000953674 16.27499961853 2259.1699104309 32814.454681578
79070	2196303 5730 17799 22092 134.75 175.5 164 486.85000610352 731.51937866211 87721.406677246 47821846.96198
79069	2202033 5729 17799 22092 134.75 175.5 164 486.79223632812 806.11563110352 95219.693305969 57313439.124837
vector 79191  IntersectionExampleScenario.node[85].veinsmobility  acceleration  ETV
vector 79192  IntersectionExampleScenario.node[85].veinsmobility  co2emission  ETV
vector 79195  IntersectionExampleScenario.node[86].veinsmobility  posx  ETV
vector 79196  IntersectionExampleScenario.node[86].veinsmobility  posy  ETV
vector 79197  IntersectionExampleScenario.node[86].veinsmobility  speed  ETV
vector 79198  IntersectionExampleScenario.node[86].veinsmobility  acceleration  ETV
vector 79199  IntersectionExampleScenario.node[86].veinsmobility  co2emission  ETV
79017	2208332 7583 15761 22899 118.5 181 251 0.973 11.200708441096 614.25496795683 3073.6817546157
79016	2215915 7203 15761 22899 118.5 181 251 -7.3232574462891 4 35.625318527222 481.36682339882
79015	2223118 7477 15728 22899 118.25 181 252 0 15.02499961853 2184.403911829 28822.806547673
79014	2230595 8829 15695 22899 118 181 253 184.17810058594 483.36395263672 106713.1579895 47095621.170224
79013	2239424 8787 15695 22899 118 181 253 486.85000610352 735.00680541992 131847.36376953 69845267.332527
vector 79202  IntersectionExampleScenario.node[87].veinsmobility  posx  ETV
vector 79203  IntersectionExampleScenario.node[87].veinsmobility  posy  ETV
vector 79204  IntersectionExampleScenario.node[87].veinsmobility  speed  ETV
79045	2248443 7899 16463 23158 123.75 182.75 237 0.973 11.200708441096 613.77596420555 2857.2510481426
79044	2256342 8086 16463 23158 123.75 182.75 237 -4.5 2.5 38.511121749878 422.30875177899
79043	2264428 8056 16430 23158 123.5 182.75 238 0 15.654216766357 2183.4973967336 30146.474358808
79042	2272484 8333 16397 23158 123.25 182.75 239 184.17810058594 483.14999389648 100141.17102051 43935149.051883
79041	2280817 8361 16397 23158 123.25 182.75 239 486.85000610352 733.26615905762 124544.16993713 65959151.248261
vector 79209  IntersectionExampleScenario.node[88].veinsmobility  posx  ETV
vector 79210  IntersectionExampleScenario.node[88].veinsmobility  posy  ETV
vector 79205  IntersectionExampleScenario.node[87].veinsmobility  acceleration  ETV
vector 79206  IntersectionExampleScenario.node[87].veinsmobility  co2emission  ETV
vector 79211  IntersectionExampleScenario.node[88].veinsmobility  speed  ETV
vector 79212  IntersectionExampleScenario.node[88].veinsmobility  acceleration  ETV
vector 79213  IntersectionExampleScenario.node[88].veinsmobility  co2emission  ETV
vector 79216  IntersectionExampleScenario.node[89].veinsmobility  posx  ETV
vector 79217  IntersectionExampleScenario.node[89].veinsmobility  posy  ETV
vector 79218  IntersectionExampleScenario.node[89].veinsmobility  speed  ETV
vector 79219  IntersectionExampleScenario.node[89].veinsmobility  acceleration  ETV
vector 79220  IntersectionExampleScenario.node[89].veinsmobility  co2emission  ETV
vector 79223  IntersectionExampleScenario.node[90].veinsmobility  posx  ETV
vector 79224  IntersectionExampleScenario.node[90].veinsmobility  posy  ETV
vector 79225  IntersectionExampleScenario.node[90].veinsmobility  speed  ETV
vector 79226  IntersectionExampleScenario.node[90].veinsmobility  acceleration  ETV
vector 79227  IntersectionExampleScenario.node[90].veinsmobility  co2emission  ETV
vector 79230  IntersectionExampleScenario.node[91].veinsmobility  posx  ETV
vector 79231  IntersectionExampleScenario.node[91].veinsmobility  posy  ETV
vector 79232  IntersectionExampleScenario.node[91].veinsmobility  speed  ETV
vector 79233  IntersectionExampleScenario.node[91].veinsmobility  acceleration  ETV
vector 79234  IntersectionExampleScenario.node[91].veinsmobility  co2emission  ETV
vector 79237  IntersectionExampleScenario.node[92].veinsmobility  posx  ETV
vector 79238  IntersectionExampleScenario.node[92].veinsmobility  posy  ETV
vector 79239  IntersectionExampleScenario.node[92].veinsmobility  speed  ETV
vector 79240  IntersectionExampleScenario.node[92].veinsmobility  acceleration  ETV
vector 79241  IntersectionExampleScenario.node[92].veinsmobility  co2emission  ETV
vector 79244  IntersectionExampleScenario.node[93].veinsmobility  posx  ETV
vector 79245  IntersectionExampleScenario.node[93].veinsmobility  posy  ETV
79066	2291506 7015 17768 24218 134.5 190.25 224 0.97223939240464 11.810082123732 599.32054602547 3104.0688053046
79065	2298521 6718 17768 24218 134.5 190.25 224 -6.9346771240234 4 38.680875778198 479.6330695366
79064	2305239 6742 17737 24218 134.25 190.25 225 0 15.875 2184.4838042259 30881.380159582
79063	2311981 7903 17705 24218 134 190.25 226 486.63604736328 785.82187652588 124591.42813873 70676846.567593
79062	2319884 7839 17705 24218 134 190.25 226 235.25335693359 483.14999389648 100951.84796143 46151769.274502
vector 79246  IntersectionExampleScenario.node[93].veinsmobility  speed  ETV
vector 79247  IntersectionExampleScenario.node[93].veinsmobility  acceleration  ETV
vector 79248  IntersectionExampleScenario.node[93].veinsmobility  co2emission  ETV
vector 79251  IntersectionExampleScenario.node[94].veinsmobility  posx  ETV
vector 79252  IntersectionExampleScenario.node[94].veinsmobility  posy  ETV
vector 79253  IntersectionExampleScenario.node[94].veinsmobility  speed  ETV
vector 79254  IntersectionExampleScenario.node[94].veinsmobility  acceleration  ETV
vector 79255  IntersectionExampleScenario.node[94].veinsmobility  co2emission  ETV
vector 79258  IntersectionExampleScenario.node[95].veinsmobility  posx  ETV
vector 79259  IntersectionExampleScenario.node[95].veinsmobility  posy  ETV
vector 79265  IntersectionExampleScenario.node[96].veinsmobility  posx  ETV
vector 79266  IntersectionExampleScenario.node[96].veinsmobility  posy  ETV
vector 79260  IntersectionExampleScenario.node[95].veinsmobility  speed  ETV
vector 79261  IntersectionExampleScenario.node[95].veinsmobility  acceleration  ETV
vector 79262  IntersectionExampleScenario.node[95].veinsmobility  co2emission  ETV
vector 79267  IntersectionExampleScenario.node[96].veinsmobility  speed  ETV
vector 79272  IntersectionExampleScenario.node[97].veinsmobility  posx  ETV
vector 79273  IntersectionExampleScenario.node[97].veinsmobility  posy  ETV
vector 79268  IntersectionExampleScenario.node[96].veinsmobility  acceleration  ETV
vector 79269  IntersectionExampleScenario.node[96].veinsmobility  co2emission  ETV
vector 79274  IntersectionExampleScenario.node[97].veinsmobility  speed  ETV
vector 79275  IntersectionExampleScenario.node[97].veinsmobility  acceleration  ETV
vector 79276  IntersectionExampleScenario.node[97].veinsmobility  co2emission  ETV
vector 79279  IntersectionExampleScenario.node[98].veinsmobility  posx  ETV
vector 79280  IntersectionExampleScenario.node[98].veinsmobility  posy  ETV
vector 79281  IntersectionExampleScenario.node[98].veinsmobility  speed  ETV
vector 79282  IntersectionExampleScenario.node[98].veinsmobility  acceleration  ETV
vector 79283  IntersectionExampleScenario.node[98].veinsmobility  co2emission  ETV
vector 79286  IntersectionExampleScenario.node[99].veinsmobility  posx  ETV
vector 79287  IntersectionExampleScenario.node[99].veinsmobility  posy  ETV
vector 79288  IntersectionExampleScenario.node[99].veinsmobility  speed  ETV
vector 79289  IntersectionExampleScenario.node[99].veinsmobility  acceleration  ETV
vector 79290  IntersectionExampleScenario.node[99].veinsmobility  co2emission  ETV
79122	2330376 5599 20316 25497 158 199 165 0.973 11.990504229548 534.55372410965 2877.4094528251
79121	2335975 5232 20316 25497 158 199 165 -4.5 2.5 39.699392318726 318.47757180992
79120	2341207 5587 20293 25497 157.75 199 166 5.6500000953674 16.125 2306.630967617 33332.477312372
79119	2346794 5844 20270 25497 157.5 199 167 483.14999389648 483.14999389648 80686.048980713 38983464.072563
79118	2352638 5817 20270 25497 157.5 199 167 162.90466308594 733.85498046875 73194.173202515 36656003.214884
vector 79293  IntersectionExampleScenario.node[100].veinsmobility  posx  ETV
vector 79294  IntersectionExampleScenario.node[100].veinsmobility  posy  ETV
vector 79295  IntersectionExampleScenario.node[100].veinsmobility  speed  ETV
79080	2358690 7412 18541 25616 140.75 199.75 237 0.973 11.36141391502 593.51703857947 2846.2792008307
79079	2366102 7017 18541 25616 140.75 199.75 237 -9.8677825927734 4 36.134572982788 556.40298177445
79078	2373119 7060 18510 25616 140.5 199.75 238 0 15.25 2197.2387695312 30207.037092832
79077	2380179 8299 18479 25616 140.25 199.75 239 486.85000610352 733.67727661133 124861.27079773 66326105.37201
79076	2388478 8361 18479 25616 140.25 199.75 239 486.63604736328 790.38186645508 131744.17062378 74753602.992281
vector 79296  IntersectionExampleScenario.node[100].veinsmobility  acceleration  ETV
vector 79297  IntersectionExampleScenario.node[100].veinsmobility  co2emission  ETV
79108	2397010 5866 20207 25657 156.75 200 174 0.973 11.200708441096 519.39643054256 2607.5762342787
79107	2402876 5407 20207 25657 156.75 200 174 -3.4775314331055 2.5000009536743 35.455564498901 370.01456409066
79106	2408283 5917 20188 25657 156.5 200 175 1.8112752437592 15.02499961853 2185.6072261333 29480.243429341
79105	2414200 6154 20169 25657 156.25 200 176 235.36254882812 483.14999389648 76358.767822266 34131134.405804
79104	2420354 6125 20169 25657 156.25 200 176 184.17810058594 483.38409423828 70663.413024902 30199028.067381
vector 79300  IntersectionExampleScenario.node[101].veinsmobility  posx  ETV
vector 79301  IntersectionExampleScenario.node[101].veinsmobility  posy  ETV
vector 79302  IntersectionExampleScenario.node[101].veinsmobility  speed  ETV
vector 79303  IntersectionExampleScenario.node[101].veinsmobility  acceleration  ETV
vector 79304  IntersectionExampleScenario.node[101].veinsmobility  co2emission  ETV
79094	2426885 7169 19039 25907 145 201.5 227 0.973 11.36141391502 603.70074018111 2891.562421406
79093	2434054 6642 19039 25907 145 201.5 227 -4.5 2.5 39.869146347046 473.19292676713
79092	2440696 6941 19010 25907 144.75 201.5 228 0 15.652052879333 2130.2555845948 30060.230500009
[...]
83838	27132577 7970 220531 227530 1726.75 1790.75 257 0 15.02499961853 2174.3621253967 29682.365315677
83837	27140547 9535 220508 227530 1726.5 1790.75 258 486.63604736328 785.82187652588 140896.66234589 79047338.742639
83836	27150082 9483 220508 227530 1726.5 1790.75 258 238.08221435547 483.14999389648 116211.93789673 53445679.78102
vector 84053  IntersectionExampleScenario.node[780].veinsmobility  posx  ETV
vector 84054  IntersectionExampleScenario.node[780].veinsmobility  posy  ETV
83861	27159721 8821 220752 227667 1729.25 1791.75 251 0.973 11.200708441096 612.73511188538 2748.2986934266
83860	27168542 8656 220752 227667 1729.25 1791.75 251 -4.5 2.5 35.964826583862 422.51229975697
83859	27177198 8912 220727 227667 1729 1791.75 252 0 15.02499961853 2274.306604418 30831.171575692
83858	27186110 9334 220704 227667 1728.75 1791.75 253 238.55212402344 802.70781707764 131939.58757019 73449945.460011
83857	27195444 9362 220704 227667 1728.75 1791.75 253 483.14999389648 483.14999389648 122236.94845581 59058780.90035
vector 84060  IntersectionExampleScenario.node[781].veinsmobility  posx  ETV
vector 84061  IntersectionExampleScenario.node[781].veinsmobility  posy  ETV
vector 84055  IntersectionExampleScenario.node[780].veinsmobility  speed  ETV
vector 84056  IntersectionExampleScenario.node[780].veinsmobility  acceleration  ETV
vector 84057  IntersectionExampleScenario.node[780].veinsmobility  co2emission  ETV
vector 84062  IntersectionExampleScenario.node[781].veinsmobility  speed  ETV
vector 84063  IntersectionExampleScenario.node[781].veinsmobility  acceleration  ETV
vector 84064  IntersectionExampleScenario.node[781].veinsmobility  co2emission  ETV
83889	27205462 7703 221615 228058 1738 1794.5 227 0.973 11.200708441096 578.35856642841 2725.7536000571
83888	27213165 7862 221615 228058 1738 1794.5 227 -3.7932462692261 2.5 37.492597579956 331.66741863734
83887	27221027 8110 221588 228058 1737.75 1794.5 228 0 15.05627155304 2191.5818696655 28171.483456514
83886	27229137 8453 221561 228058 1737.5 1794.5 229 486.85000610352 785.82187652588 127774.94997406 73190302.77887
83885	27237590 8438 221561 228058 1737.5 1794.5 229 235.20239257812 483.14999389648 102225.81225586 46710377.451775
vector 84067  IntersectionExampleScenario.node[782].veinsmobility  posx  ETV
vector 84068  IntersectionExampleScenario.node[782].veinsmobility  posy  ETV
vector 84074  IntersectionExampleScenario.node[783].veinsmobility  posx  ETV
vector 84075  IntersectionExampleScenario.node[783].veinsmobility  posy  ETV
vector 84069  IntersectionExampleScenario.node[782].veinsmobility  speed  ETV
vector 84070  IntersectionExampleScenario.node[782].veinsmobility  acceleration  ETV
vector 84071  IntersectionExampleScenario.node[782].veinsmobility  co2emission  ETV
vector 84076  IntersectionExampleScenario.node[783].veinsmobility  speed  ETV
vector 84077  IntersectionExampleScenario.node[783].veinsmobility  acceleration  ETV
vector 84078  IntersectionExampleScenario.node[783].veinsmobility  co2emission  ETV
83931	27246840 5770 223505 228401 1756 1797 165 0.973 11.648172402475 545.61240120364 3161.9233829817
83930	27252610 5658 223505 228401 1756 1797 165 -2.9277687072754 2.5 39.020376205444 312.95251114952
83929	27258268 5836 223480 228401 1755.75 1797 166 5.6500000953674 15.64999961853 2180.7661342621 30083.386187377
83928	27264104 6170 223455 228401 1755.5 1797 167 486.85000610352 785.82187652588 95516.176734924 56371403.710053
83927	27270274 6172 223455 228401 1755.5 1797 167 238.12060546875 483.14999389648 72649.54675293 32523911.526793
vector 84081  IntersectionExampleScenario.node[784].veinsmobility  posx  ETV
vector 84082  IntersectionExampleScenario.node[784].veinsmobility  posy  ETV
vector 84083  IntersectionExampleScenario.node[784].veinsmobility  speed  ETV
vector 84084  IntersectionExampleScenario.node[784].veinsmobility  acceleration  ETV
vector 84085  IntersectionExampleScenario.node[784].veinsmobility  co2emission  ETV
vector 84088  IntersectionExampleScenario.node[785].veinsmobility  posx  ETV
vector 84089  IntersectionExampleScenario.node[785].veinsmobility  posy  ETV
vector 84095  IntersectionExampleScenario.node[786].veinsmobility  posx  ETV
vector 84096  IntersectionExampleScenario.node[786].veinsmobility  posy  ETV
vector 84090  IntersectionExampleScenario.node[785].veinsmobility  speed  ETV
vector 84097  IntersectionExampleScenario.node[786].veinsmobility  speed  ETV
vector 84091  IntersectionExampleScenario.node[785].veinsmobility  acceleration  ETV
vector 84092  IntersectionExampleScenario.node[785].veinsmobility  co2emission  ETV
vector 84098  IntersectionExampleScenario.node[786].veinsmobility  acceleration  ETV
vector 84099  IntersectionExampleScenario.node[786].veinsmobility  co2emission  ETV
83896	27277664 8025 221808 228785 1739.75 1799.5 240 0.973 11.450879080643 607.82031623477 2859.8666476105
83895	27285689 7105 221808 228785 1739.75 1799.5 240 -32.536018371582 4 36.98334312439 1417.445759222
83894	27292794 7606 221779 228785 1739.5 1799.5 241 0 15.375 2248.826543808 31677.741894546
83893	27300400 8953 221750 228785 1739.25 1799.5 242 237.87945556641 486.85000610352 109305.81256104 50484780.934611
83892	27309353 8948 221750 228785 1739.25 1799.5 242 483.14999389648 798.98475646973 133612.28544617 76095111.926353
83903	27318301 8155 222103 228868 1742.25 1800 232 0.973 11.54047740176 602.87795657408 2862.2929788717
83902	27326456 7961 222103 228868 1742.25 1800 232 -4.5 2.5 36.98334312439 433.87100117533
83901	27334417 8249 222072 228868 1742 1800 233 0 15.5 2267.3721230635 31211.655999987
83900	27342666 8657 222041 228868 1741.75 1800 234 486.85000610352 486.85000610352 113922.90142822 55463365.25566
83899	27351323 8631 222041 228868 1741.75 1800 234 245.67669677734 807.99707794189 123336.96734619 69568753.424646
83917	27359954 6255 223337 228868 1754.25 1800 184 0.973 11.648172402475 529.06664366978 2824.6840911326
83916	27366209 6572 223337 228868 1754.25 1800 184 -3.9793815612793 2.5 38.171613693237 321.18458010443
83915	27372781 6656 223314 228868 1754 1800 185 1.9619255065918 15.64999961853 2052.7650296688 26939.690458376
83914	27379437 6881 223291 228868 1753.75 1800 186 486.85000610352 486.85000610352 90554.101135254 44086264.690397
83913	27386318 6849 223291 228868 1753.75 1800 186 277.701171875 785.82187652588 100051.92925262 57166557.880228
83924	27393167 6213 223432 228868 1755.25 1800 180 0.973 11.810082123732 541.88211201566 3034.1119245897
83923	27399380 6166 223432 228868 1755.25 1800 180 -4.5 2.5 38.511564254761 445.15401919028
83922	27405546 6365 223408 228868 1755 1800 181 2.9328441619873 15.875 1941.7482607365 24793.607118097
83921	27411911 6715 223383 228868 1754.75 1800 182 486.85000610352 650.29287719727 92275.729934692 47106499.281172
83920	27418626 6711 223383 228868 1754.75 1800 182 486.85000610352 807.99687957764 106202.23695374 63949540.790891
83938	27425337 5597 223840 228868 1759.5 1800 163 0.973 11.200708441096 458.54527901099 2423.6051074424
83937	27430934 5731 223840 228868 1759.5 1800 163 -4.5 2.5 35.625799179077 296.01926760126
83936	27436665 5759 223815 228868 1759.25 1800 164 3.6652464866638 15.02499961853 1745.9533243179 21189.119994261
83935	27442424 6097 223790 228868 1759 1800 165 486.85000610352 608.14511108398 82504.166137695 41398062.671265
83934	27448521 6087 223790 228868 1759 1800 165 486.85000610352 801.27032470703 97371.00075531 59238454.004582
83945	27454608 5035 224102 228868 1762.25 1800 152 0.973 12.099024792222 481.09991028896 2854.2599568637
83944	27459643 4763 224102 228868 1762.25 1800 152 -7.8777389526367 4 40.017740249634 503.78891308058
83943	27464406 4916 224077 228868 1762 1800 153 0 16.27499961853 1466.4627382755 20448.459953209
83942	27469322 5674 224052 228868 1761.75 1800 154 184.17810058594 546.97222900391 60900.98638916 25812765.960914
83941	27474996 5697 224052 228868 1761.75 1800 154 486.85000610352 486.85000610352 74974.900939941 36501530.980221
83952	27480693 4733 224439 228868 1765.75 1800 138 0.973 11.54047740176 447.1543982871 2621.0055304473
83951	27485426 4724 224439 228868 1765.75 1800 138 -4.4756927490234 2.5 38.344717025757 290.51398536696
83950	27490150 4914 224414 228868 1765.5 1800 139 3.9740562438965 15.5 1673.632127285 21762.324264878
83949	27495064 5180 224389 228868 1765.25 1800 140 486.85000610352 486.85000610352 68159.000854492 33183209.982019
83948	27500244 5168 224389 228868 1765.25 1800 140 372.79370117188 785.82187652588 81170.8332901 48989894.269331
83959	27505412 4011 224818 228868 1769.5 1800 123 0.973 11.200708441096 313.38160059736 1579.4050976982
83958	27509423 4104 224818 228868 1769.5 1800 123 -20.299682617188 2.5 -22.60000038147 696.14895688564
83957	27513527 4189 224791 228868 1769.25 1800 124 0 15.02499961853 1179.9194078445 15288.122326389
83956	27517716 4623 224764 228868 1769 1800 125 486.85000610352 486.85000610352 60856.250762939 29627866.055374
83955	27522339 4612 224764 228868 1769 1800 125 498.39999389648 793.78281402588 76361.485870361 47952835.368386
83966	27526951 4225 224930 228868 1770.5 1800 119 0.973 11.200708441096 379.27599414579 2144.2767349869
83965	27531176 4257 224930 228868 1770.5 1800 119 -3.1700134277344 2.5 35.654348373413 202.33139356069
83964	27535433 4271 224901 228868 1770.25 1800 120 5.6500000953674 15.02499961853 1571.2585010529 21256.973799109
83963	27539704 4467 224872 228868 1770 1800 121 483.14999389648 574.18151855469 59711.3230896 29527896.282515
83962	27544171 4455 224872 228868 1770 1800 121 184.17810058594 486.85507202148 44371.96194458 17626051.424118
83973	27548626 3871 225021 228868 1771.25 1800 116 0.973 11.200708441096 314.9276716262 1544.7448666892
83972	27552497 3625 225021 228868 1771.25 1800 116 -21.746978759766 2.5 -22.60000038147 770.19636340873
83971	27556122 3939 224990 228868 1771 1800 117 0 15.669364929199 1239.0839042664 17854.674572481
83970	27560061 4365 224959 228868 1770.75 1800 118 483.14999389648 483.14999389648 57011.699279785 27545202.159056
83969	27564426 4330 224959 228868 1770.75 1800 118 161.1796875 471.60000610352 41035.266387939 15683204.292816
83980	27568756 3561 225321 228868 1773.75 1800 106 0.973 11.200708441096 261.8170448755 1300.4101819351
83979	27572317 3911 225321 228868 1773.75 1800 106 -4.5 2.5 -21.816707015038 256.27405786741
83978	27576228 3938 225291 228868 1773.5 1800 107 0 15.02499961853 1152.8732000366 15257.167796485
83977	27580166 3996 225260 228868 1773.25 1800 108 486.85000610352 486.85000610352 52579.80065918 25598476.271843
83976	27584162 3981 225260 228868 1773.25 1800 108 505.43865966797 794.16329193115 67947.048706055 43806079.606852
83987	27588143 3292 225608 228868 1776.25 1800 96 0.973 9.8748427937284 306.60201297034 1671.7022636115
83986	27591435 3400 225608 228868 1776.25 1800 96 -4.5 2.5 -9.4481086730957 350.66915265863
83985	27594835 3577 225579 228868 1776 1800 97 3.2879729270935 16.050224304199 1098.6322863102 14242.82100353
83984	27598412 3625 225550 228868 1775.75 1800 98 486.85000610352 486.85000610352 47711.300598145 23228246.987413
83983	27602037 3610 225550 228868 1775.75 1800 98 531.34255981445 805.58634185791 65191.784309387 44207095.273872
83994	27605647 3013 225866 228868 1778.5 1800 87 0.973 11.507681446435 262.61682836741 1360.4867920118
83993	27608660 3168 225866 228868 1778.5 1800 87 -4.5 2.5 -2.1463298797607 222.41180275951
83992	27611828 3246 225837 228868 1778.25 1800 88 5.1134176254272 15.939647674561 1091.1003360748 14556.099208073
83991	27615074 3291 225808 228868 1778 1800 89 486.85000610352 486.85000610352 43329.650543213 21095040.631426
83990	27618365 3278 225808 228868 1778 1800 89 541.81466674805 812.59004974365 60534.654922485 41877285.041786
84001	27621643 2760 225961 228868 1779.25 1800 84 0.973 11.200708441096 252.81229736427 1369.5396488208
84000	27624403 2958 225961 228868 1779.25 1800 84 -4.5 2.5 -16.002671718597 279.81358978318
83999	27627361 3124 225928 228868 1779 1800 85 1.6493321657181 16.281759262085 970.55785036087 13313.007374678
83998	27630485 3181 225895 228868 1778.75 1800 86 486.85000610352 486.85000610352 41869.100524902 20383971.846097
83997	27633666 3173 225895 228868 1778.75 1800 86 515.96942138672 758.47911834717 53687.387405396 34115974.92634
84008	27636839 2961 225961 228868 1779.25 1800 84 0.9709817954893 12.112260742934 288.68741854826 1833.7477191492
84007	27639800 2985 225961 228868 1779.25 1800 84 -3.9012699127197 2.5000038146973 5.3999996185303 245.79591376487
84006	27642785 3056 225928 228868 1779 1800 85 5.6500000953674 16.293254852295 1178.8420319557 17249.662751363
84005	27645841 3153 225895 228868 1778.75 1800 86 184.17810058594 476.6142578125 28107.821838379 9947123.089301
84004	27648994 3181 225895 228868 1778.75 1800 86 486.85000610352 488.19906616211 41871.593566895 20386401.809028
84015	27652175 3004 226031 228868 1779.75 1800 82 0.973 11.140104223835 258.37724021765 1306.0390390983
84014	27655179 2875 226031 228868 1779.75 1800 82 -0.49935150146484 2.5 36.27202796936 89.058478931274
84013	27658054 3065 225996 228868 1779.5 1800 83 5.6500000953674 14.939994812012 1130.0977735519 15801.085043741
84012	27661119 3096 225961 228868 1779.25 1800 84 160.43438720703 438.10943603516 24241.195770264 7609562.0643477
84011	27664215 3108 225961 228868 1779.25 1800 84 486.85000610352 486.85000610352 40895.400512695 19909925.989211
84022	27667323 2611 226273 228868 1781.5 1800 75 0.973 11.487461856067 237.22313225138 1321.3033268589
84021	27669934 2698 226273 228868 1781.5 1800 75 -4.5 2.5 7.3729057312012 179.51822488367
84020	27672632 2794 226238 228868 1781.25 1800 76 5.6500000953674 15.4260597229 987.59821271896 13490.437994518
84019	27675426 2847 226203 228868 1781 1800 77 486.85000610352 486.85000610352 37487.450469971 18250765.49011
84018	27678273 2836 226203 228868 1781 1800 77 568.37426757812 812.76636505127 53410.153450012 37527988.429975
84029	27681109 2432 226589 228868 1783.75 1800 66 1.6778656626784 11.200708441096 229.61241958671 1278.1150501425
84028	27683541 2242 226589 228868 1783.75 1800 66 -0.12916564941406 2.5 36.98334312439 93.788124843824
84027	27685783 2463 226554 228868 1783.5 1800 67 5.6500000953674 15.02499961853 925.47504329681 13170.380421087
84026	27688246 2509 226518 228868 1783.25 1800 68 164.7314453125 391.14038085938 18247.735076904 5232088.8516989
84025	27690755 2516 226518 228868 1783.25 1800 68 486.85000610352 486.85000610352 33105.800415039 16117559.134124
84036	27693271 1874 227088 228868 1787.5 1800 51 1.1319351608255 11.648172402475 208.19599947569 1359.3800980382
84035	27695145 1820 227088 228868 1787.5 1800 51 -0.28734588623047 2.5 39.269212722778 101.03380301547
84034	27696965 1912 227055 228868 1787.25 1800 52 5.6500000953674 15.64999961853 719.99620342255 10386.628182692
84033	27698877 1959 227022 228868 1787 1800 53 483.14999389648 483.14999389648 25606.949676514 12371997.579915
84032	27700836 1940 227022 228868 1787 1800 53 184.17810058594 358.97985839844 13879.228393555 3794033.2625077
84043	27702776 1768 227191 228868 1788.25 1800 48 1.5237915469079 11.200708441096 190.45508846573 1193.3465894735
84042	27704544 1738 227191 228868 1788.25 1800 48 -0.17160415649414 2.5 36.813634872437 93.817300476021
84041	27706282 1800 227156 228868 1788 1800 49 5.6500000953674 15.02499961853 656.07681179047 9138.5355713891
84040	27708082 1846 227121 228868 1787.75 1800 50 626.75386047363 785.82187652588 35755.446540833 25693815.453573
84039	27709928 1849 227121 228868 1787.75 1800 50 483.14999389648 483.14999389648 24157.499694824 11671695.830109
84050	27711777 1383 227530 228868 1790.75 1800 38 0.973 11.446017320255 188.15670176368 1363.1816981186
84049	27713160 1248 227530 228868 1790.75 1800 38 -3.0621757507324 2.5 41.400686264038 114.55273327709
84048	27714408 1438 227495 228868 1790.5 1800 39 5.6500000953674 16.021507263184 463.64068698883 6016.8172193983
84047	27715846 1480 227460 228868 1790.25 1800 40 483.14999389648 483.14999389648 19325.999755859 9337356.6640869
84046	27717326 1465 227460 228868 1790.25 1800 40 172.9296875 283.69885253906 8707.83984375 1941135.531492
84057	27718791 1157 227739 228868 1792.25 1800 32 0.973 11.648172402475 161.98915980297 1239.771734239
84056	27719948 1034 227739 228868 1792.25 1800 32 -0.5 2.5 37.854391098022 100.64733038462
84055	27720982 1206 227702 228868 1792 1800 33 5.6500000953674 15.64999961853 424.42958450317 5789.8858824527
84054	27722188 1257 227667 228868 1791.75 1800 34 483.14999389648 483.14999389648 16427.09979248 7936753.1644739
84053	27723445 1251 227667 228868 1791.75 1800 34 208.26013183594 309.64025878906 8536.9957275391 2178787.8073159
84064	27724696 1142 227776 228868 1792.5 1800 31 1.8321577376031 11.200708441096 155.60834733191 1121.383313073
84063	27725838 1020 227776 228868 1792.5 1800 31 -0.086727142333984 2.5 37.156568527222 93.767180898318
84062	27726858 1174 227739 228868 1792.25 1800 32 5.6500000953674 15.02499961853 404.66993141174 5420.7718024116
84061	27728032 1219 227702 228868 1792 1800 33 486.85000610352 486.85000610352 16066.050201416 7821756.6386188
84060	27729251 1216 227702 228868 1792 1800 33 689.63319396973 785.82187652588 24593.897346497 18359778.01492
84071	27730467 559 228295 228868 1796.25 1800 16 0.973 6.4635356930995 56.492099131897 268.30443421203
84070	27731026 522 228295 228868 1796.25 1800 16 -4.4460601806641 2.5 12.795377731323 59.832223677444
84069	27731548 625 228258 228868 1796 1800 17 5.6500000953674 8.8488445281982 126.33004283905 947.6335777471
84068	27732173 660 228223 228868 1795.75 1800 18 184.17810058594 213.13415527344 3551.7399902344 702383.65796056
84067	27732833 665 228223 228868 1795.75 1800 18 486.85000610352 486.85000610352 8763.3001098633 4266412.7119739
84078	27733498 553 228331 228868 1796.5 1800 15 1.5620670627292 6.5036554782533 49.71985404964 224.15123310907
84077	27734051 533 228331 228868 1796.5 1800 15 -0.025749206542969 2.5 14.073438644409 31.55550393675
84076	27734584 591 228295 228868 1796.25 1800 16 5.6500000953674 9.1717748641968 132.57811546326 1117.9604979683
84075	27735175 623 228258 228868 1796 1800 17 159.76721191406 190.10125732422 2940.544128418 510276.77217306
84074	27735798 627 228258 228868 1796 1800 17 486.85000610352 486.85000610352 8276.4501037598 4029389.7835309
84085	27736425 367 228510 228868 1797.75 1800 10 5.2162187258585 9.0094788378334 71.010429736213 518.89513016095
84084	27736792 261 228510 228868 1797.75 1800 10 2.4999980926514 2.5 24.999998092651 62.49999046326
84083	27737053 402 228473 228868 1797.5 1800 11 5.6500000953674 11.89999961853 96.524997711182 889.97557648659
84082	27737455 433 228436 228868 1797.25 1800 12 213.88439941406 234.41558837891 2666.018737793 592846.33156327
84081	27737888 444 228436 228868 1797.25 1800 12 486.85000610352 486.85000610352 5842.2000732422 2844275.1413159
84092	27738332 183 228703 228868 1799 1800 5 5.2162187258585 6.8826618500064 30.239051553249 184.61558649684
84091	27738515 135 228703 228868 1799 1800 5 2.4999980926514 2.5 12.499998092651 31.24999046326
84090	27738650 221 228662 228868 1798.75 1800 6 5.6500000953674 8.7749996185303 43.27499961853 318.95686711311
84089	27738871 258 228621 228868 1798.5 1800 7 155.87957763672 164.11395263672 1114.2976074219 177440.32058299
84088	27739129 258 228621 228868 1798.5 1800 7 486.85000610352 486.85000610352 3407.9500427246 1659160.499101
84099	27739387 183 228703 228868 1799 1800 5 5.2162187258585 6.8826618500064 30.239051553249 184.61558649684
84098	27739570 135 228703 228868 1799 1800 5 2.4999980926514 2.5 12.499998092651 31.24999046326
84097	27739705 221 228662 228868 1798.75 1800 6 5.6500000953674 8.7749996185303 43.27499961853 318.95686711311
84096	27739926 258 228621 228868 1798.5 1800 7 483.14999389648 483.14999389648 3382.0499572754 1634037.4162152
84095	27740184 253 228621 228868 1798.5 1800 7 184.17810058594 192.41247558594 1312.3874511719 246111.98714531
78589	27740437 642 0 228867 0 1800 31 0 37 681 16349
78590	27741079 661 0 228867 0 1800 31 0 245 3885 644787
