version 2
run nodebug-23-20200606-13:08:11-21956
attr configname nodebug
attr datetime 20200606-13:08:11
attr experiment nodebug
attr inifile omnetpp.ini
attr iterationvars ""
attr iterationvars2 $repetition=23
attr measurement ""
attr network "\"org.car2x.veins.modules.application.ExtTraCIScenarioManagerLaunchd.IntersectionExampleScenario\""
attr processid 21956
attr repetition 23
attr replication #23
attr resultdir results
attr runnumber 23
attr seedset 23
param **.coreDebug false
param **.debug false
param *.**.nic.mac1609_4.bitrate 18Mbps
param *.**.nic.mac1609_4.txPower 20mW
param *.**.nic.mac1609_4.useServiceChannel false
param *.**.nic.phy80211p.analogueModels "xmldoc(\"config.xml\")"
param *.**.nic.phy80211p.decider "xmldoc(\"config.xml\")"
param *.**.nic.phy80211p.sensitivity -89dBm
param *.**.nic.phy80211p.thermalNoise -110dBm
param *.**.nic.phy80211p.usePropagationDelay true
param *.**.nic.phy80211p.useThermalNoise true
param *.annotations.draw false
param *.connectionManager.alpha 2.0
param *.connectionManager.carrierFrequency "5.890e9 Hz"
param *.connectionManager.pMax 20mW
param *.connectionManager.sat -89dBm
param *.connectionManager.sendDirect true
param *.manager.autoShutdown true
param *.manager.host "\"localhost\""
param *.manager.launchConfig "xmldoc(\"paramics.launchd.xml\")"
param *.manager.margin 25
param *.manager.moduleDisplayString "\"\""
param *.manager.moduleName "\"node\""
param *.manager.moduleType "\"org.car2x.veins.nodes.Car\""
param *.manager.port 9999
param *.manager.updateInterval 250ms
param *.node[*0].veinsmobility.accidentCount 0
param *.node[*0].veinsmobility.accidentDuration 30s
param *.node[*0].veinsmobility.accidentStart 75s
param *.node[*].appl.LiderSelectZoneRadio 55.0
param *.node[*].appl.ShareDataZoneRadio 110.0
param *.node[*].appl.TiempoSemaforo 30.0
param *.node[*].appl.beaconInterval 1s
param *.node[*].appl.beaconPriority 3
param *.node[*].appl.dataOnSch false
param *.node[*].appl.dataPriority 2
param *.node[*].appl.debug false
param *.node[*].appl.headerLength "256 bit"
param *.node[*].appl.maxOffset 0.005s
param *.node[*].appl.sendBeacons false
param *.node[*].appl.sendData true
param *.node[*].applType "\"Dummy\""
param *.node[*].mobilityType "\"TraCIMobility\""
param *.node[*].mobilityType.debug true
param *.node[*].veinsmobility.x 0
param *.node[*].veinsmobility.y 0
param *.node[*].veinsmobility.z 1.895
param *.node[*].veinsmobilityType "\"org.car2x.veins.modules.mobility.traci.TraCIMobility\""
param *.node[*].veinsmobilityType.debug true
param *.playgroundSizeX 8500m
param *.playgroundSizeY 8500m
param *.playgroundSizeZ 50m
param *.world.use2D false
param *.world.useTorus false

scalar IntersectionExampleScenario.node[0].appl 	VehicleRemoved 	0
scalar IntersectionExampleScenario.node[0].appl 	ArrivedAtDest 	1
scalar IntersectionExampleScenario.node[0].appl 	IntersectionEnterTime 	1.75
scalar IntersectionExampleScenario.node[0].appl 	IntersectionExitTime 	25.535299480864
scalar IntersectionExampleScenario.node[0].appl 	NumberOfCollisions 	0
scalar IntersectionExampleScenario.node[0].nic.phy80211p 	busyTime 	0
scalar IntersectionExampleScenario.node[0].nic.mac1609_4 	ReceivedUnicastPackets 	0
scalar IntersectionExampleScenario.node[0].nic.mac1609_4 	ReceivedBroadcasts 	0
scalar IntersectionExampleScenario.node[0].nic.mac1609_4 	SentPackets 	0
scalar IntersectionExampleScenario.node[0].nic.mac1609_4 	SNIRLostPackets 	0
scalar IntersectionExampleScenario.node[0].nic.mac1609_4 	RXTXLostPackets 	0
scalar IntersectionExampleScenario.node[0].nic.mac1609_4 	TotalLostPackets 	0
scalar IntersectionExampleScenario.node[0].nic.mac1609_4 	DroppedPacketsInMac 	0
scalar IntersectionExampleScenario.node[0].nic.mac1609_4 	TooLittleTime 	0
scalar IntersectionExampleScenario.node[0].nic.mac1609_4 	TimesIntoBackoff 	0
scalar IntersectionExampleScenario.node[0].nic.mac1609_4 	SlotsBackoff 	0
scalar IntersectionExampleScenario.node[0].nic.mac1609_4 	NumInternalContention 	0
scalar IntersectionExampleScenario.node[0].nic.mac1609_4 	totalBusyTime 	0
scalar IntersectionExampleScenario.node[0].veinsmobility 	startTime 	1.75
scalar IntersectionExampleScenario.node[0].veinsmobility 	totalTime 	40.75
scalar IntersectionExampleScenario.node[0].veinsmobility 	stopTime 	42.75
scalar IntersectionExampleScenario.node[0].veinsmobility 	minSpeed 	5.6500000953674
scalar IntersectionExampleScenario.node[0].veinsmobility 	maxSpeed 	15.25
scalar IntersectionExampleScenario.node[0].veinsmobility 	totalDistance 	544.57385868503
scalar IntersectionExampleScenario.node[0].veinsmobility 	totalCO2Emission 	124.39965242606
scalar IntersectionExampleScenario.node[2].appl 	VehicleRemoved 	0
scalar IntersectionExampleScenario.node[2].appl 	ArrivedAtDest 	1
scalar IntersectionExampleScenario.node[2].appl 	IntersectionEnterTime 	3.25
scalar IntersectionExampleScenario.node[2].appl 	IntersectionExitTime 	26.610504022014
scalar IntersectionExampleScenario.node[2].appl 	NumberOfCollisions 	0
scalar IntersectionExampleScenario.node[2].nic.phy80211p 	busyTime 	0
scalar IntersectionExampleScenario.node[2].nic.mac1609_4 	ReceivedUnicastPackets 	0
scalar IntersectionExampleScenario.node[2].nic.mac1609_4 	ReceivedBroadcasts 	0
scalar IntersectionExampleScenario.node[2].nic.mac1609_4 	SentPackets 	0
scalar IntersectionExampleScenario.node[2].nic.mac1609_4 	SNIRLostPackets 	0
scalar IntersectionExampleScenario.node[2].nic.mac1609_4 	RXTXLostPackets 	0
scalar IntersectionExampleScenario.node[2].nic.mac1609_4 	TotalLostPackets 	0
scalar IntersectionExampleScenario.node[2].nic.mac1609_4 	DroppedPacketsInMac 	0
scalar IntersectionExampleScenario.node[2].nic.mac1609_4 	TooLittleTime 	0
scalar IntersectionExampleScenario.node[2].nic.mac1609_4 	TimesIntoBackoff 	0
scalar IntersectionExampleScenario.node[2].nic.mac1609_4 	SlotsBackoff 	0
scalar IntersectionExampleScenario.node[2].nic.mac1609_4 	NumInternalContention 	0
scalar IntersectionExampleScenario.node[2].nic.mac1609_4 	totalBusyTime 	0
scalar IntersectionExampleScenario.node[2].veinsmobility 	startTime 	3.25
scalar IntersectionExampleScenario.node[2].veinsmobility 	totalTime 	39.75
scalar IntersectionExampleScenario.node[2].veinsmobility 	stopTime 	43.25
scalar IntersectionExampleScenario.node[2].veinsmobility 	minSpeed 	5.6500000953674
scalar IntersectionExampleScenario.node[2].veinsmobility 	maxSpeed 	15.875
scalar IntersectionExampleScenario.node[2].veinsmobility 	totalDistance 	543.73121432631
scalar IntersectionExampleScenario.node[2].veinsmobility 	totalCO2Emission 	127.49738793632
scalar IntersectionExampleScenario.node[1].appl 	VehicleRemoved 	0
scalar IntersectionExampleScenario.node[1].appl 	ArrivedAtDest 	1
scalar IntersectionExampleScenario.node[1].appl 	IntersectionEnterTime 	2.25
scalar IntersectionExampleScenario.node[1].appl 	IntersectionExitTime 	27.049055308278
scalar IntersectionExampleScenario.node[1].appl 	NumberOfCollisions 	0
scalar IntersectionExampleScenario.node[1].nic.phy80211p 	busyTime 	0
scalar IntersectionExampleScenario.node[1].nic.mac1609_4 	ReceivedUnicastPackets 	0
scalar IntersectionExampleScenario.node[1].nic.mac1609_4 	ReceivedBroadcasts 	0
scalar IntersectionExampleScenario.node[1].nic.mac1609_4 	SentPackets 	0
scalar IntersectionExampleScenario.node[1].nic.mac1609_4 	SNIRLostPackets 	0
scalar IntersectionExampleScenario.node[1].nic.mac1609_4 	RXTXLostPackets 	0
scalar IntersectionExampleScenario.node[1].nic.mac1609_4 	TotalLostPackets 	0
scalar IntersectionExampleScenario.node[1].nic.mac1609_4 	DroppedPacketsInMac 	0
scalar IntersectionExampleScenario.node[1].nic.mac1609_4 	TooLittleTime 	0
scalar IntersectionExampleScenario.node[1].nic.mac1609_4 	TimesIntoBackoff 	0
scalar IntersectionExampleScenario.node[1].nic.mac1609_4 	SlotsBackoff 	0
scalar IntersectionExampleScenario.node[1].nic.mac1609_4 	NumInternalContention 	0
scalar IntersectionExampleScenario.node[1].nic.mac1609_4 	totalBusyTime 	0
scalar IntersectionExampleScenario.node[1].veinsmobility 	startTime 	2.25
scalar IntersectionExampleScenario.node[1].veinsmobility 	totalTime 	40.75
scalar IntersectionExampleScenario.node[1].veinsmobility 	stopTime 	43.25
scalar IntersectionExampleScenario.node[1].veinsmobility 	minSpeed 	5.6500000953674
scalar IntersectionExampleScenario.node[1].veinsmobility 	maxSpeed 	15.5
scalar IntersectionExampleScenario.node[1].veinsmobility 	totalDistance 	577.70613098145
scalar IntersectionExampleScenario.node[1].veinsmobility 	totalCO2Emission 	127.92767093376
scalar IntersectionExampleScenario.node[3].appl 	VehicleRemoved 	0
scalar IntersectionExampleScenario.node[3].appl 	ArrivedAtDest 	1
scalar IntersectionExampleScenario.node[3].appl 	IntersectionEnterTime 	6.5
scalar IntersectionExampleScenario.node[3].appl 	IntersectionExitTime 	36.37230336474
scalar IntersectionExampleScenario.node[3].appl 	NumberOfCollisions 	0
scalar IntersectionExampleScenario.node[3].nic.phy80211p 	busyTime 	0
scalar IntersectionExampleScenario.node[3].nic.mac1609_4 	ReceivedUnicastPackets 	0
scalar IntersectionExampleScenario.node[3].nic.mac1609_4 	ReceivedBroadcasts 	0
scalar IntersectionExampleScenario.node[3].nic.mac1609_4 	SentPackets 	0
scalar IntersectionExampleScenario.node[3].nic.mac1609_4 	SNIRLostPackets 	0
scalar IntersectionExampleScenario.node[3].nic.mac1609_4 	RXTXLostPackets 	0
scalar IntersectionExampleScenario.node[3].nic.mac1609_4 	TotalLostPackets 	0
scalar IntersectionExampleScenario.node[3].nic.mac1609_4 	DroppedPacketsInMac 	0
scalar IntersectionExampleScenario.node[3].nic.mac1609_4 	TooLittleTime 	0
scalar IntersectionExampleScenario.node[3].nic.mac1609_4 	TimesIntoBackoff 	0
scalar IntersectionExampleScenario.node[3].nic.mac1609_4 	SlotsBackoff 	0
scalar IntersectionExampleScenario.node[3].nic.mac1609_4 	NumInternalContention 	0
scalar IntersectionExampleScenario.node[3].nic.mac1609_4 	totalBusyTime 	0
scalar IntersectionExampleScenario.node[3].veinsmobility 	startTime 	6.5
scalar IntersectionExampleScenario.node[3].veinsmobility 	totalTime 	46
scalar IntersectionExampleScenario.node[3].veinsmobility 	stopTime 	52.75
scalar IntersectionExampleScenario.node[3].veinsmobility 	minSpeed 	0
scalar IntersectionExampleScenario.node[3].veinsmobility 	maxSpeed 	15.375
scalar IntersectionExampleScenario.node[3].veinsmobility 	totalDistance 	549.30344499698
scalar IntersectionExampleScenario.node[3].veinsmobility 	totalCO2Emission 	136.12775936613
scalar IntersectionExampleScenario.node[4].appl 	VehicleRemoved 	0
scalar IntersectionExampleScenario.node[4].appl 	ArrivedAtDest 	1
scalar IntersectionExampleScenario.node[4].appl 	IntersectionEnterTime 	8.75
scalar IntersectionExampleScenario.node[4].appl 	IntersectionExitTime 	38.785991804703
scalar IntersectionExampleScenario.node[4].appl 	NumberOfCollisions 	0
scalar IntersectionExampleScenario.node[4].nic.phy80211p 	busyTime 	0
scalar IntersectionExampleScenario.node[4].nic.mac1609_4 	ReceivedUnicastPackets 	0
scalar IntersectionExampleScenario.node[4].nic.mac1609_4 	ReceivedBroadcasts 	0
scalar IntersectionExampleScenario.node[4].nic.mac1609_4 	SentPackets 	0
scalar IntersectionExampleScenario.node[4].nic.mac1609_4 	SNIRLostPackets 	0
scalar IntersectionExampleScenario.node[4].nic.mac1609_4 	RXTXLostPackets 	0
scalar IntersectionExampleScenario.node[4].nic.mac1609_4 	TotalLostPackets 	0
scalar IntersectionExampleScenario.node[4].nic.mac1609_4 	DroppedPacketsInMac 	0
scalar IntersectionExampleScenario.node[4].nic.mac1609_4 	TooLittleTime 	0
scalar IntersectionExampleScenario.node[4].nic.mac1609_4 	TimesIntoBackoff 	0
scalar IntersectionExampleScenario.node[4].nic.mac1609_4 	SlotsBackoff 	0
scalar IntersectionExampleScenario.node[4].nic.mac1609_4 	NumInternalContention 	0
scalar IntersectionExampleScenario.node[4].nic.mac1609_4 	totalBusyTime 	0
scalar IntersectionExampleScenario.node[4].veinsmobility 	startTime 	8.75
scalar IntersectionExampleScenario.node[4].veinsmobility 	totalTime 	46.25
scalar IntersectionExampleScenario.node[4].veinsmobility 	stopTime 	55.25
scalar IntersectionExampleScenario.node[4].veinsmobility 	minSpeed 	0
scalar IntersectionExampleScenario.node[4].veinsmobility 	maxSpeed 	15.375
scalar IntersectionExampleScenario.node[4].veinsmobility 	totalDistance 	566.09888725702
scalar IntersectionExampleScenario.node[4].veinsmobility 	totalCO2Emission 	138.82536297823
scalar IntersectionExampleScenario.node[11].appl 	VehicleRemoved 	0
scalar IntersectionExampleScenario.node[11].appl 	ArrivedAtDest 	1
scalar IntersectionExampleScenario.node[11].appl 	IntersectionEnterTime 	19.75
scalar IntersectionExampleScenario.node[11].appl 	IntersectionExitTime 	42.750052944
scalar IntersectionExampleScenario.node[11].appl 	NumberOfCollisions 	0
scalar IntersectionExampleScenario.node[11].nic.phy80211p 	busyTime 	0
scalar IntersectionExampleScenario.node[11].nic.mac1609_4 	ReceivedUnicastPackets 	0
scalar IntersectionExampleScenario.node[11].nic.mac1609_4 	ReceivedBroadcasts 	0
scalar IntersectionExampleScenario.node[11].nic.mac1609_4 	SentPackets 	0
scalar IntersectionExampleScenario.node[11].nic.mac1609_4 	SNIRLostPackets 	0
scalar IntersectionExampleScenario.node[11].nic.mac1609_4 	RXTXLostPackets 	0
scalar IntersectionExampleScenario.node[11].nic.mac1609_4 	TotalLostPackets 	0
scalar IntersectionExampleScenario.node[11].nic.mac1609_4 	DroppedPacketsInMac 	0
scalar IntersectionExampleScenario.node[11].nic.mac1609_4 	TooLittleTime 	0
scalar IntersectionExampleScenario.node[11].nic.mac1609_4 	TimesIntoBackoff 	0
scalar IntersectionExampleScenario.node[11].nic.mac1609_4 	SlotsBackoff 	0
scalar IntersectionExampleScenario.node[11].nic.mac1609_4 	NumInternalContention 	0
scalar IntersectionExampleScenario.node[11].nic.mac1609_4 	totalBusyTime 	0
scalar IntersectionExampleScenario.node[11].veinsmobility 	startTime 	19.75
scalar IntersectionExampleScenario.node[11].veinsmobility 	totalTime 	39
scalar IntersectionExampleScenario.node[11].veinsmobility 	stopTime 	59
scalar IntersectionExampleScenario.node[11].veinsmobility 	minSpeed 	5.6500000953674
scalar IntersectionExampleScenario.node[11].veinsmobility 	maxSpeed 	16.5
scalar IntersectionExampleScenario.node[11].veinsmobility 	totalDistance 	543.49796550321
scalar IntersectionExampleScenario.node[11].veinsmobility 	totalCO2Emission 	137.98200856276
scalar IntersectionExampleScenario.node[7].appl 	VehicleRemoved 	0
scalar IntersectionExampleScenario.node[7].appl 	ArrivedAtDest 	1
scalar IntersectionExampleScenario.node[7].appl 	IntersectionEnterTime 	11
scalar IntersectionExampleScenario.node[7].appl 	IntersectionExitTime 	46.339731479937
scalar IntersectionExampleScenario.node[7].appl 	NumberOfCollisions 	0
scalar IntersectionExampleScenario.node[7].nic.phy80211p 	busyTime 	0
scalar IntersectionExampleScenario.node[7].nic.mac1609_4 	ReceivedUnicastPackets 	0
scalar IntersectionExampleScenario.node[7].nic.mac1609_4 	ReceivedBroadcasts 	0
scalar IntersectionExampleScenario.node[7].nic.mac1609_4 	SentPackets 	0
scalar IntersectionExampleScenario.node[7].nic.mac1609_4 	SNIRLostPackets 	0
scalar IntersectionExampleScenario.node[7].nic.mac1609_4 	RXTXLostPackets 	0
scalar IntersectionExampleScenario.node[7].nic.mac1609_4 	TotalLostPackets 	0
scalar IntersectionExampleScenario.node[7].nic.mac1609_4 	DroppedPacketsInMac 	0
scalar IntersectionExampleScenario.node[7].nic.mac1609_4 	TooLittleTime 	0
scalar IntersectionExampleScenario.node[7].nic.mac1609_4 	TimesIntoBackoff 	0
scalar IntersectionExampleScenario.node[7].nic.mac1609_4 	SlotsBackoff 	0
scalar IntersectionExampleScenario.node[7].nic.mac1609_4 	NumInternalContention 	0
scalar IntersectionExampleScenario.node[7].nic.mac1609_4 	totalBusyTime 	0
scalar IntersectionExampleScenario.node[7].veinsmobility 	startTime 	11
scalar IntersectionExampleScenario.node[7].veinsmobility 	totalTime 	51.5
scalar IntersectionExampleScenario.node[7].veinsmobility 	stopTime 	62.75
scalar IntersectionExampleScenario.node[7].veinsmobility 	minSpeed 	0
scalar IntersectionExampleScenario.node[7].veinsmobility 	maxSpeed 	15.375
scalar IntersectionExampleScenario.node[7].veinsmobility 	totalDistance 	523.81993865967
scalar IntersectionExampleScenario.node[7].veinsmobility 	totalCO2Emission 	139.00617524058
scalar IntersectionExampleScenario.node[5].appl 	VehicleRemoved 	0
scalar IntersectionExampleScenario.node[5].appl 	ArrivedAtDest 	1
scalar IntersectionExampleScenario.node[5].appl 	IntersectionEnterTime 	10
scalar IntersectionExampleScenario.node[5].appl 	IntersectionExitTime 	47.250066101435
scalar IntersectionExampleScenario.node[5].appl 	NumberOfCollisions 	0
scalar IntersectionExampleScenario.node[5].nic.phy80211p 	busyTime 	0
scalar IntersectionExampleScenario.node[5].nic.mac1609_4 	ReceivedUnicastPackets 	0
scalar IntersectionExampleScenario.node[5].nic.mac1609_4 	ReceivedBroadcasts 	0
scalar IntersectionExampleScenario.node[5].nic.mac1609_4 	SentPackets 	0
scalar IntersectionExampleScenario.node[5].nic.mac1609_4 	SNIRLostPackets 	0
scalar IntersectionExampleScenario.node[5].nic.mac1609_4 	RXTXLostPackets 	0
scalar IntersectionExampleScenario.node[5].nic.mac1609_4 	TotalLostPackets 	0
scalar IntersectionExampleScenario.node[5].nic.mac1609_4 	DroppedPacketsInMac 	0
scalar IntersectionExampleScenario.node[5].nic.mac1609_4 	TooLittleTime 	0
scalar IntersectionExampleScenario.node[5].nic.mac1609_4 	TimesIntoBackoff 	0
scalar IntersectionExampleScenario.node[5].nic.mac1609_4 	SlotsBackoff 	0
scalar IntersectionExampleScenario.node[5].nic.mac1609_4 	NumInternalContention 	0
scalar IntersectionExampleScenario.node[5].nic.mac1609_4 	totalBusyTime 	0
scalar IntersectionExampleScenario.node[5].veinsmobility 	startTime 	10
scalar IntersectionExampleScenario.node[5].veinsmobility 	totalTime 	53.25
scalar IntersectionExampleScenario.node[5].veinsmobility 	stopTime 	63.5
scalar IntersectionExampleScenario.node[5].veinsmobility 	minSpeed 	0
scalar IntersectionExampleScenario.node[5].veinsmobility 	maxSpeed 	16
scalar IntersectionExampleScenario.node[5].veinsmobility 	totalDistance 	551.45214326222
scalar IntersectionExampleScenario.node[5].veinsmobility 	totalCO2Emission 	149.09559516486
scalar IntersectionExampleScenario.node[6].appl 	VehicleRemoved 	0
scalar IntersectionExampleScenario.node[6].appl 	ArrivedAtDest 	1
scalar IntersectionExampleScenario.node[6].appl 	IntersectionEnterTime 	10.75
scalar IntersectionExampleScenario.node[6].appl 	IntersectionExitTime 	49.293311179703
scalar IntersectionExampleScenario.node[6].appl 	NumberOfCollisions 	0
scalar IntersectionExampleScenario.node[6].nic.phy80211p 	busyTime 	0
scalar IntersectionExampleScenario.node[6].nic.mac1609_4 	ReceivedUnicastPackets 	0
scalar IntersectionExampleScenario.node[6].nic.mac1609_4 	ReceivedBroadcasts 	0
scalar IntersectionExampleScenario.node[6].nic.mac1609_4 	SentPackets 	0
scalar IntersectionExampleScenario.node[6].nic.mac1609_4 	SNIRLostPackets 	0
scalar IntersectionExampleScenario.node[6].nic.mac1609_4 	RXTXLostPackets 	0
scalar IntersectionExampleScenario.node[6].nic.mac1609_4 	TotalLostPackets 	0
scalar IntersectionExampleScenario.node[6].nic.mac1609_4 	DroppedPacketsInMac 	0
scalar IntersectionExampleScenario.node[6].nic.mac1609_4 	TooLittleTime 	0
scalar IntersectionExampleScenario.node[6].nic.mac1609_4 	TimesIntoBackoff 	0
scalar IntersectionExampleScenario.node[6].nic.mac1609_4 	SlotsBackoff 	0
scalar IntersectionExampleScenario.node[6].nic.mac1609_4 	NumInternalContention 	0
scalar IntersectionExampleScenario.node[6].nic.mac1609_4 	totalBusyTime 	0
scalar IntersectionExampleScenario.node[6].veinsmobility 	startTime 	10.75
scalar IntersectionExampleScenario.node[6].veinsmobility 	totalTime 	53.75
scalar IntersectionExampleScenario.node[6].veinsmobility 	stopTime 	64.75
scalar IntersectionExampleScenario.node[6].veinsmobility 	minSpeed 	0
scalar IntersectionExampleScenario.node[6].veinsmobility 	maxSpeed 	16.02680015564
scalar IntersectionExampleScenario.node[6].veinsmobility 	totalDistance 	573.84577178955
scalar IntersectionExampleScenario.node[6].veinsmobility 	totalCO2Emission 	153.65682072312
scalar IntersectionExampleScenario.node[10].appl 	VehicleRemoved 	0
scalar IntersectionExampleScenario.node[10].appl 	ArrivedAtDest 	1
scalar IntersectionExampleScenario.node[10].appl 	IntersectionEnterTime 	16.75
scalar IntersectionExampleScenario.node[10].appl 	IntersectionExitTime 	51.536600747466
scalar IntersectionExampleScenario.node[10].appl 	NumberOfCollisions 	0
scalar IntersectionExampleScenario.node[10].nic.phy80211p 	busyTime 	0
scalar IntersectionExampleScenario.node[10].nic.mac1609_4 	ReceivedUnicastPackets 	0
scalar IntersectionExampleScenario.node[10].nic.mac1609_4 	ReceivedBroadcasts 	0
scalar IntersectionExampleScenario.node[10].nic.mac1609_4 	SentPackets 	0
scalar IntersectionExampleScenario.node[10].nic.mac1609_4 	SNIRLostPackets 	0
scalar IntersectionExampleScenario.node[10].nic.mac1609_4 	RXTXLostPackets 	0
scalar IntersectionExampleScenario.node[10].nic.mac1609_4 	TotalLostPackets 	0
scalar IntersectionExampleScenario.node[10].nic.mac1609_4 	DroppedPacketsInMac 	0
scalar IntersectionExampleScenario.node[10].nic.mac1609_4 	TooLittleTime 	0
scalar IntersectionExampleScenario.node[10].nic.mac1609_4 	TimesIntoBackoff 	0
scalar IntersectionExampleScenario.node[10].nic.mac1609_4 	SlotsBackoff 	0
scalar IntersectionExampleScenario.node[10].nic.mac1609_4 	NumInternalContention 	0
scalar IntersectionExampleScenario.node[10].nic.mac1609_4 	totalBusyTime 	0
scalar IntersectionExampleScenario.node[10].veinsmobility 	startTime 	16.75
scalar IntersectionExampleScenario.node[10].veinsmobility 	totalTime 	50.75
scalar IntersectionExampleScenario.node[10].veinsmobility 	stopTime 	67.75
scalar IntersectionExampleScenario.node[10].veinsmobility 	minSpeed 	0
scalar IntersectionExampleScenario.node[10].veinsmobility 	maxSpeed 	15.64999961853
scalar IntersectionExampleScenario.node[10].veinsmobility 	totalDistance 	541.25347137451
scalar IntersectionExampleScenario.node[10].veinsmobility 	totalCO2Emission 	140.89470240489
scalar IntersectionExampleScenario.node[8].appl 	VehicleRemoved 	0
scalar IntersectionExampleScenario.node[8].appl 	ArrivedAtDest 	1
scalar IntersectionExampleScenario.node[8].appl 	IntersectionEnterTime 	15.75
scalar IntersectionExampleScenario.node[8].appl 	IntersectionExitTime 	55.259691760875
scalar IntersectionExampleScenario.node[8].appl 	NumberOfCollisions 	0
scalar IntersectionExampleScenario.node[8].nic.phy80211p 	busyTime 	0
scalar IntersectionExampleScenario.node[8].nic.mac1609_4 	ReceivedUnicastPackets 	0
scalar IntersectionExampleScenario.node[8].nic.mac1609_4 	ReceivedBroadcasts 	0
scalar IntersectionExampleScenario.node[8].nic.mac1609_4 	SentPackets 	0
scalar IntersectionExampleScenario.node[8].nic.mac1609_4 	SNIRLostPackets 	0
scalar IntersectionExampleScenario.node[8].nic.mac1609_4 	RXTXLostPackets 	0
scalar IntersectionExampleScenario.node[8].nic.mac1609_4 	TotalLostPackets 	0
scalar IntersectionExampleScenario.node[8].nic.mac1609_4 	DroppedPacketsInMac 	0
scalar IntersectionExampleScenario.node[8].nic.mac1609_4 	TooLittleTime 	0
scalar IntersectionExampleScenario.node[8].nic.mac1609_4 	TimesIntoBackoff 	0
scalar IntersectionExampleScenario.node[8].nic.mac1609_4 	SlotsBackoff 	0
scalar IntersectionExampleScenario.node[8].nic.mac1609_4 	NumInternalContention 	0
scalar IntersectionExampleScenario.node[8].nic.mac1609_4 	totalBusyTime 	0
scalar IntersectionExampleScenario.node[8].veinsmobility 	startTime 	15.75
scalar IntersectionExampleScenario.node[8].veinsmobility 	totalTime 	55.5
scalar IntersectionExampleScenario.node[8].veinsmobility 	stopTime 	71.5
scalar IntersectionExampleScenario.node[8].veinsmobility 	minSpeed 	0
scalar IntersectionExampleScenario.node[8].veinsmobility 	maxSpeed 	15.64999961853
scalar IntersectionExampleScenario.node[8].veinsmobility 	totalDistance 	552.47965240479
scalar IntersectionExampleScenario.node[8].veinsmobility 	totalCO2Emission 	147.8194845165
scalar IntersectionExampleScenario.node[14].appl 	VehicleRemoved 	0
scalar IntersectionExampleScenario.node[14].appl 	ArrivedAtDest 	1
scalar IntersectionExampleScenario.node[14].appl 	IntersectionEnterTime 	26
scalar IntersectionExampleScenario.node[14].appl 	IntersectionExitTime 	57.301568784838
scalar IntersectionExampleScenario.node[14].appl 	NumberOfCollisions 	0
scalar IntersectionExampleScenario.node[14].nic.phy80211p 	busyTime 	0
scalar IntersectionExampleScenario.node[14].nic.mac1609_4 	ReceivedUnicastPackets 	0
scalar IntersectionExampleScenario.node[14].nic.mac1609_4 	ReceivedBroadcasts 	0
scalar IntersectionExampleScenario.node[14].nic.mac1609_4 	SentPackets 	0
scalar IntersectionExampleScenario.node[14].nic.mac1609_4 	SNIRLostPackets 	0
scalar IntersectionExampleScenario.node[14].nic.mac1609_4 	RXTXLostPackets 	0
scalar IntersectionExampleScenario.node[14].nic.mac1609_4 	TotalLostPackets 	0
scalar IntersectionExampleScenario.node[14].nic.mac1609_4 	DroppedPacketsInMac 	0
scalar IntersectionExampleScenario.node[14].nic.mac1609_4 	TooLittleTime 	0
scalar IntersectionExampleScenario.node[14].nic.mac1609_4 	TimesIntoBackoff 	0
scalar IntersectionExampleScenario.node[14].nic.mac1609_4 	SlotsBackoff 	0
scalar IntersectionExampleScenario.node[14].nic.mac1609_4 	NumInternalContention 	0
scalar IntersectionExampleScenario.node[14].nic.mac1609_4 	totalBusyTime 	0
scalar IntersectionExampleScenario.node[14].veinsmobility 	startTime 	26
scalar IntersectionExampleScenario.node[14].veinsmobility 	totalTime 	46.75
scalar IntersectionExampleScenario.node[14].veinsmobility 	stopTime 	73
scalar IntersectionExampleScenario.node[14].veinsmobility 	minSpeed 	2.1301274299622
scalar IntersectionExampleScenario.node[14].veinsmobility 	maxSpeed 	16.27499961853
scalar IntersectionExampleScenario.node[14].veinsmobility 	totalDistance 	553.832862854
scalar IntersectionExampleScenario.node[14].veinsmobility 	totalCO2Emission 	140.93091143142
scalar IntersectionExampleScenario.node[18].appl 	VehicleRemoved 	0
scalar IntersectionExampleScenario.node[18].appl 	ArrivedAtDest 	1
scalar IntersectionExampleScenario.node[18].appl 	IntersectionEnterTime 	30
scalar IntersectionExampleScenario.node[18].appl 	IntersectionExitTime 	59.347913556994
scalar IntersectionExampleScenario.node[18].appl 	NumberOfCollisions 	0
scalar IntersectionExampleScenario.node[18].nic.phy80211p 	busyTime 	0
scalar IntersectionExampleScenario.node[18].nic.mac1609_4 	ReceivedUnicastPackets 	0
scalar IntersectionExampleScenario.node[18].nic.mac1609_4 	ReceivedBroadcasts 	0
scalar IntersectionExampleScenario.node[18].nic.mac1609_4 	SentPackets 	0
scalar IntersectionExampleScenario.node[18].nic.mac1609_4 	SNIRLostPackets 	0
scalar IntersectionExampleScenario.node[18].nic.mac1609_4 	RXTXLostPackets 	0
scalar IntersectionExampleScenario.node[18].nic.mac1609_4 	TotalLostPackets 	0
scalar IntersectionExampleScenario.node[18].nic.mac1609_4 	DroppedPacketsInMac 	0
scalar IntersectionExampleScenario.node[18].nic.mac1609_4 	TooLittleTime 	0
scalar IntersectionExampleScenario.node[18].nic.mac1609_4 	TimesIntoBackoff 	0
scalar IntersectionExampleScenario.node[18].nic.mac1609_4 	SlotsBackoff 	0
scalar IntersectionExampleScenario.node[18].nic.mac1609_4 	NumInternalContention 	0
scalar IntersectionExampleScenario.node[18].nic.mac1609_4 	totalBusyTime 	0
scalar IntersectionExampleScenario.node[18].veinsmobility 	startTime 	30
scalar IntersectionExampleScenario.node[18].veinsmobility 	totalTime 	46.25
scalar IntersectionExampleScenario.node[18].veinsmobility 	stopTime 	76.5
scalar IntersectionExampleScenario.node[18].veinsmobility 	minSpeed 	3.9861278533936
scalar IntersectionExampleScenario.node[18].veinsmobility 	maxSpeed 	15.25
scalar IntersectionExampleScenario.node[18].veinsmobility 	totalDistance 	526.51118501536
scalar IntersectionExampleScenario.node[18].veinsmobility 	totalCO2Emission 	139.24659995631
scalar IntersectionExampleScenario.node[16].appl 	VehicleRemoved 	0
scalar IntersectionExampleScenario.node[16].appl 	ArrivedAtDest 	1
scalar IntersectionExampleScenario.node[16].appl 	IntersectionEnterTime 	27.25
scalar IntersectionExampleScenario.node[16].appl 	IntersectionExitTime 	61.870738689846
scalar IntersectionExampleScenario.node[16].appl 	NumberOfCollisions 	0
scalar IntersectionExampleScenario.node[16].nic.phy80211p 	busyTime 	0
scalar IntersectionExampleScenario.node[16].nic.mac1609_4 	ReceivedUnicastPackets 	0
scalar IntersectionExampleScenario.node[16].nic.mac1609_4 	ReceivedBroadcasts 	0
scalar IntersectionExampleScenario.node[16].nic.mac1609_4 	SentPackets 	0
scalar IntersectionExampleScenario.node[16].nic.mac1609_4 	SNIRLostPackets 	0
scalar IntersectionExampleScenario.node[16].nic.mac1609_4 	RXTXLostPackets 	0
scalar IntersectionExampleScenario.node[16].nic.mac1609_4 	TotalLostPackets 	0
scalar IntersectionExampleScenario.node[16].nic.mac1609_4 	DroppedPacketsInMac 	0
scalar IntersectionExampleScenario.node[16].nic.mac1609_4 	TooLittleTime 	0
scalar IntersectionExampleScenario.node[16].nic.mac1609_4 	TimesIntoBackoff 	0
scalar IntersectionExampleScenario.node[16].nic.mac1609_4 	SlotsBackoff 	0
scalar IntersectionExampleScenario.node[16].nic.mac1609_4 	NumInternalContention 	0
scalar IntersectionExampleScenario.node[16].nic.mac1609_4 	totalBusyTime 	0
scalar IntersectionExampleScenario.node[16].veinsmobility 	startTime 	27.25
scalar IntersectionExampleScenario.node[16].veinsmobility 	totalTime 	52.5
scalar IntersectionExampleScenario.node[16].veinsmobility 	stopTime 	80
scalar IntersectionExampleScenario.node[16].veinsmobility 	minSpeed 	2.2674674987793
scalar IntersectionExampleScenario.node[16].veinsmobility 	maxSpeed 	14.079750061035
scalar IntersectionExampleScenario.node[16].veinsmobility 	totalDistance 	565.88142322706
scalar IntersectionExampleScenario.node[16].veinsmobility 	totalCO2Emission 	148.93209139379
scalar IntersectionExampleScenario.node[17].appl 	VehicleRemoved 	0
scalar IntersectionExampleScenario.node[17].appl 	ArrivedAtDest 	1
scalar IntersectionExampleScenario.node[17].appl 	IntersectionEnterTime 	29.5
scalar IntersectionExampleScenario.node[17].appl 	IntersectionExitTime 	64.255469172844
scalar IntersectionExampleScenario.node[17].appl 	NumberOfCollisions 	0
scalar IntersectionExampleScenario.node[17].nic.phy80211p 	busyTime 	0
scalar IntersectionExampleScenario.node[17].nic.mac1609_4 	ReceivedUnicastPackets 	0
scalar IntersectionExampleScenario.node[17].nic.mac1609_4 	ReceivedBroadcasts 	0
scalar IntersectionExampleScenario.node[17].nic.mac1609_4 	SentPackets 	0
scalar IntersectionExampleScenario.node[17].nic.mac1609_4 	SNIRLostPackets 	0
scalar IntersectionExampleScenario.node[17].nic.mac1609_4 	RXTXLostPackets 	0
scalar IntersectionExampleScenario.node[17].nic.mac1609_4 	TotalLostPackets 	0
scalar IntersectionExampleScenario.node[17].nic.mac1609_4 	DroppedPacketsInMac 	0
scalar IntersectionExampleScenario.node[17].nic.mac1609_4 	TooLittleTime 	0
scalar IntersectionExampleScenario.node[17].nic.mac1609_4 	TimesIntoBackoff 	0
scalar IntersectionExampleScenario.node[17].nic.mac1609_4 	SlotsBackoff 	0
scalar IntersectionExampleScenario.node[17].nic.mac1609_4 	NumInternalContention 	0
scalar IntersectionExampleScenario.node[17].nic.mac1609_4 	totalBusyTime 	0
scalar IntersectionExampleScenario.node[17].veinsmobility 	startTime 	29.5
scalar IntersectionExampleScenario.node[17].veinsmobility 	totalTime 	51.75
scalar IntersectionExampleScenario.node[17].veinsmobility 	stopTime 	81.5
scalar IntersectionExampleScenario.node[17].veinsmobility 	minSpeed 	5.42613697052
scalar IntersectionExampleScenario.node[17].veinsmobility 	maxSpeed 	15.10635471344
scalar IntersectionExampleScenario.node[17].veinsmobility 	totalDistance 	572.27962222072
scalar IntersectionExampleScenario.node[17].veinsmobility 	totalCO2Emission 	147.80287371896
scalar IntersectionExampleScenario.node[19].appl 	VehicleRemoved 	0
scalar IntersectionExampleScenario.node[19].appl 	ArrivedAtDest 	1
scalar IntersectionExampleScenario.node[19].appl 	IntersectionEnterTime 	31.75
scalar IntersectionExampleScenario.node[19].appl 	IntersectionExitTime 	66.298408207018
scalar IntersectionExampleScenario.node[19].appl 	NumberOfCollisions 	0
scalar IntersectionExampleScenario.node[19].nic.phy80211p 	busyTime 	0
scalar IntersectionExampleScenario.node[19].nic.mac1609_4 	ReceivedUnicastPackets 	0
scalar IntersectionExampleScenario.node[19].nic.mac1609_4 	ReceivedBroadcasts 	0
scalar IntersectionExampleScenario.node[19].nic.mac1609_4 	SentPackets 	0
scalar IntersectionExampleScenario.node[19].nic.mac1609_4 	SNIRLostPackets 	0
scalar IntersectionExampleScenario.node[19].nic.mac1609_4 	RXTXLostPackets 	0
scalar IntersectionExampleScenario.node[19].nic.mac1609_4 	TotalLostPackets 	0
scalar IntersectionExampleScenario.node[19].nic.mac1609_4 	DroppedPacketsInMac 	0
scalar IntersectionExampleScenario.node[19].nic.mac1609_4 	TooLittleTime 	0
scalar IntersectionExampleScenario.node[19].nic.mac1609_4 	TimesIntoBackoff 	0
scalar IntersectionExampleScenario.node[19].nic.mac1609_4 	SlotsBackoff 	0
scalar IntersectionExampleScenario.node[19].nic.mac1609_4 	NumInternalContention 	0
scalar IntersectionExampleScenario.node[19].nic.mac1609_4 	totalBusyTime 	0
scalar IntersectionExampleScenario.node[19].veinsmobility 	startTime 	31.75
scalar IntersectionExampleScenario.node[19].veinsmobility 	totalTime 	51.5
scalar IntersectionExampleScenario.node[19].veinsmobility 	stopTime 	83.5
scalar IntersectionExampleScenario.node[19].veinsmobility 	minSpeed 	5.2846670150757
scalar IntersectionExampleScenario.node[19].veinsmobility 	maxSpeed 	15.125751495361
scalar IntersectionExampleScenario.node[19].veinsmobility 	totalDistance 	576.94219270792
scalar IntersectionExampleScenario.node[19].veinsmobility 	totalCO2Emission 	145.05312999619
scalar IntersectionExampleScenario.node[13].appl 	VehicleRemoved 	0
scalar IntersectionExampleScenario.node[13].appl 	ArrivedAtDest 	1
scalar IntersectionExampleScenario.node[13].appl 	IntersectionEnterTime 	24.5
scalar IntersectionExampleScenario.node[13].appl 	IntersectionExitTime 	68.273722750397
scalar IntersectionExampleScenario.node[13].appl 	NumberOfCollisions 	0
scalar IntersectionExampleScenario.node[13].nic.phy80211p 	busyTime 	0
scalar IntersectionExampleScenario.node[13].nic.mac1609_4 	ReceivedUnicastPackets 	0
scalar IntersectionExampleScenario.node[13].nic.mac1609_4 	ReceivedBroadcasts 	0
scalar IntersectionExampleScenario.node[13].nic.mac1609_4 	SentPackets 	0
scalar IntersectionExampleScenario.node[13].nic.mac1609_4 	SNIRLostPackets 	0
scalar IntersectionExampleScenario.node[13].nic.mac1609_4 	RXTXLostPackets 	0
scalar IntersectionExampleScenario.node[13].nic.mac1609_4 	TotalLostPackets 	0
scalar IntersectionExampleScenario.node[13].nic.mac1609_4 	DroppedPacketsInMac 	0
scalar IntersectionExampleScenario.node[13].nic.mac1609_4 	TooLittleTime 	0
scalar IntersectionExampleScenario.node[13].nic.mac1609_4 	TimesIntoBackoff 	0
scalar IntersectionExampleScenario.node[13].nic.mac1609_4 	SlotsBackoff 	0
scalar IntersectionExampleScenario.node[13].nic.mac1609_4 	NumInternalContention 	0
scalar IntersectionExampleScenario.node[13].nic.mac1609_4 	totalBusyTime 	0
scalar IntersectionExampleScenario.node[13].veinsmobility 	startTime 	24.5
scalar IntersectionExampleScenario.node[13].veinsmobility 	totalTime 	59.5
scalar IntersectionExampleScenario.node[13].veinsmobility 	stopTime 	84.25
scalar IntersectionExampleScenario.node[13].veinsmobility 	minSpeed 	0
scalar IntersectionExampleScenario.node[13].veinsmobility 	maxSpeed 	16
scalar IntersectionExampleScenario.node[13].veinsmobility 	totalDistance 	549.9086085712
scalar IntersectionExampleScenario.node[13].veinsmobility 	totalCO2Emission 	154.79097482283
scalar IntersectionExampleScenario.node[26].appl 	VehicleRemoved 	0
scalar IntersectionExampleScenario.node[26].appl 	ArrivedAtDest 	1
scalar IntersectionExampleScenario.node[26].appl 	IntersectionEnterTime 	42.25
scalar IntersectionExampleScenario.node[26].appl 	IntersectionExitTime 	66.816144377255
scalar IntersectionExampleScenario.node[26].appl 	NumberOfCollisions 	0
scalar IntersectionExampleScenario.node[26].nic.phy80211p 	busyTime 	0
scalar IntersectionExampleScenario.node[26].nic.mac1609_4 	ReceivedUnicastPackets 	0
scalar IntersectionExampleScenario.node[26].nic.mac1609_4 	ReceivedBroadcasts 	0
scalar IntersectionExampleScenario.node[26].nic.mac1609_4 	SentPackets 	0
scalar IntersectionExampleScenario.node[26].nic.mac1609_4 	SNIRLostPackets 	0
scalar IntersectionExampleScenario.node[26].nic.mac1609_4 	RXTXLostPackets 	0
scalar IntersectionExampleScenario.node[26].nic.mac1609_4 	TotalLostPackets 	0
scalar IntersectionExampleScenario.node[26].nic.mac1609_4 	DroppedPacketsInMac 	0
scalar IntersectionExampleScenario.node[26].nic.mac1609_4 	TooLittleTime 	0
scalar IntersectionExampleScenario.node[26].nic.mac1609_4 	TimesIntoBackoff 	0
scalar IntersectionExampleScenario.node[26].nic.mac1609_4 	SlotsBackoff 	0
scalar IntersectionExampleScenario.node[26].nic.mac1609_4 	NumInternalContention 	0
scalar IntersectionExampleScenario.node[26].nic.mac1609_4 	totalBusyTime 	0
scalar IntersectionExampleScenario.node[26].veinsmobility 	startTime 	42.25
scalar IntersectionExampleScenario.node[26].veinsmobility 	totalTime 	42
scalar IntersectionExampleScenario.node[26].veinsmobility 	stopTime 	84.5
scalar IntersectionExampleScenario.node[26].veinsmobility 	minSpeed 	5.6500000953674
scalar IntersectionExampleScenario.node[26].veinsmobility 	maxSpeed 	14.625
scalar IntersectionExampleScenario.node[26].veinsmobility 	totalDistance 	544.21897339218
scalar IntersectionExampleScenario.node[26].veinsmobility 	totalCO2Emission 	120.83558288635
scalar IntersectionExampleScenario.node[20].appl 	VehicleRemoved 	0
scalar IntersectionExampleScenario.node[20].appl 	ArrivedAtDest 	1
scalar IntersectionExampleScenario.node[20].appl 	IntersectionEnterTime 	35.75
scalar IntersectionExampleScenario.node[20].appl 	IntersectionExitTime 	69.26159075083
scalar IntersectionExampleScenario.node[20].appl 	NumberOfCollisions 	0
scalar IntersectionExampleScenario.node[20].nic.phy80211p 	busyTime 	0
scalar IntersectionExampleScenario.node[20].nic.mac1609_4 	ReceivedUnicastPackets 	0
scalar IntersectionExampleScenario.node[20].nic.mac1609_4 	ReceivedBroadcasts 	0
scalar IntersectionExampleScenario.node[20].nic.mac1609_4 	SentPackets 	0
scalar IntersectionExampleScenario.node[20].nic.mac1609_4 	SNIRLostPackets 	0
scalar IntersectionExampleScenario.node[20].nic.mac1609_4 	RXTXLostPackets 	0
scalar IntersectionExampleScenario.node[20].nic.mac1609_4 	TotalLostPackets 	0
scalar IntersectionExampleScenario.node[20].nic.mac1609_4 	DroppedPacketsInMac 	0
scalar IntersectionExampleScenario.node[20].nic.mac1609_4 	TooLittleTime 	0
scalar IntersectionExampleScenario.node[20].nic.mac1609_4 	TimesIntoBackoff 	0
scalar IntersectionExampleScenario.node[20].nic.mac1609_4 	SlotsBackoff 	0
scalar IntersectionExampleScenario.node[20].nic.mac1609_4 	NumInternalContention 	0
scalar IntersectionExampleScenario.node[20].nic.mac1609_4 	totalBusyTime 	0
scalar IntersectionExampleScenario.node[20].veinsmobility 	startTime 	35.75
scalar IntersectionExampleScenario.node[20].veinsmobility 	totalTime 	50.25
scalar IntersectionExampleScenario.node[20].veinsmobility 	stopTime 	86.25
scalar IntersectionExampleScenario.node[20].veinsmobility 	minSpeed 	1.0668412446976
scalar IntersectionExampleScenario.node[20].veinsmobility 	maxSpeed 	15.875
scalar IntersectionExampleScenario.node[20].veinsmobility 	totalDistance 	546.8999961364
scalar IntersectionExampleScenario.node[20].veinsmobility 	totalCO2Emission 	139.24445409842
scalar IntersectionExampleScenario.node[25].appl 	VehicleRemoved 	0
scalar IntersectionExampleScenario.node[25].appl 	ArrivedAtDest 	1
scalar IntersectionExampleScenario.node[25].appl 	IntersectionEnterTime 	40.25
scalar IntersectionExampleScenario.node[25].appl 	IntersectionExitTime 	71.280022738385
scalar IntersectionExampleScenario.node[25].appl 	NumberOfCollisions 	0
scalar IntersectionExampleScenario.node[25].nic.phy80211p 	busyTime 	0
scalar IntersectionExampleScenario.node[25].nic.mac1609_4 	ReceivedUnicastPackets 	0
scalar IntersectionExampleScenario.node[25].nic.mac1609_4 	ReceivedBroadcasts 	0
scalar IntersectionExampleScenario.node[25].nic.mac1609_4 	SentPackets 	0
scalar IntersectionExampleScenario.node[25].nic.mac1609_4 	SNIRLostPackets 	0
scalar IntersectionExampleScenario.node[25].nic.mac1609_4 	RXTXLostPackets 	0
scalar IntersectionExampleScenario.node[25].nic.mac1609_4 	TotalLostPackets 	0
scalar IntersectionExampleScenario.node[25].nic.mac1609_4 	DroppedPacketsInMac 	0
scalar IntersectionExampleScenario.node[25].nic.mac1609_4 	TooLittleTime 	0
scalar IntersectionExampleScenario.node[25].nic.mac1609_4 	TimesIntoBackoff 	0
scalar IntersectionExampleScenario.node[25].nic.mac1609_4 	SlotsBackoff 	0
scalar IntersectionExampleScenario.node[25].nic.mac1609_4 	NumInternalContention 	0
scalar IntersectionExampleScenario.node[25].nic.mac1609_4 	totalBusyTime 	0
scalar IntersectionExampleScenario.node[25].veinsmobility 	startTime 	40.25
scalar IntersectionExampleScenario.node[25].veinsmobility 	totalTime 	46.75
scalar IntersectionExampleScenario.node[25].veinsmobility 	stopTime 	87.25
scalar IntersectionExampleScenario.node[25].veinsmobility 	minSpeed 	2.208482503891
scalar IntersectionExampleScenario.node[25].veinsmobility 	maxSpeed 	16.390930175781
scalar IntersectionExampleScenario.node[25].veinsmobility 	totalDistance 	518.63908747861
scalar IntersectionExampleScenario.node[25].veinsmobility 	totalCO2Emission 	145.40264871807
scalar IntersectionExampleScenario.node[22].appl 	VehicleRemoved 	0
scalar IntersectionExampleScenario.node[22].appl 	ArrivedAtDest 	1
scalar IntersectionExampleScenario.node[22].appl 	IntersectionEnterTime 	38.25
scalar IntersectionExampleScenario.node[22].appl 	IntersectionExitTime 	73.344721171306
scalar IntersectionExampleScenario.node[22].appl 	NumberOfCollisions 	0
scalar IntersectionExampleScenario.node[22].nic.phy80211p 	busyTime 	0
scalar IntersectionExampleScenario.node[22].nic.mac1609_4 	ReceivedUnicastPackets 	0
scalar IntersectionExampleScenario.node[22].nic.mac1609_4 	ReceivedBroadcasts 	0
scalar IntersectionExampleScenario.node[22].nic.mac1609_4 	SentPackets 	0
scalar IntersectionExampleScenario.node[22].nic.mac1609_4 	SNIRLostPackets 	0
scalar IntersectionExampleScenario.node[22].nic.mac1609_4 	RXTXLostPackets 	0
scalar IntersectionExampleScenario.node[22].nic.mac1609_4 	TotalLostPackets 	0
scalar IntersectionExampleScenario.node[22].nic.mac1609_4 	DroppedPacketsInMac 	0
scalar IntersectionExampleScenario.node[22].nic.mac1609_4 	TooLittleTime 	0
scalar IntersectionExampleScenario.node[22].nic.mac1609_4 	TimesIntoBackoff 	0
scalar IntersectionExampleScenario.node[22].nic.mac1609_4 	SlotsBackoff 	0
scalar IntersectionExampleScenario.node[22].nic.mac1609_4 	NumInternalContention 	0
scalar IntersectionExampleScenario.node[22].nic.mac1609_4 	totalBusyTime 	0
scalar IntersectionExampleScenario.node[22].veinsmobility 	startTime 	38.25
scalar IntersectionExampleScenario.node[22].veinsmobility 	totalTime 	51.25
scalar IntersectionExampleScenario.node[22].veinsmobility 	stopTime 	89.75
scalar IntersectionExampleScenario.node[22].veinsmobility 	minSpeed 	2.5014405250549
scalar IntersectionExampleScenario.node[22].veinsmobility 	maxSpeed 	15.579092979431
scalar IntersectionExampleScenario.node[22].veinsmobility 	totalDistance 	566.66335033678
scalar IntersectionExampleScenario.node[22].veinsmobility 	totalCO2Emission 	147.75823080795
scalar IntersectionExampleScenario.node[29].appl 	VehicleRemoved 	0
scalar IntersectionExampleScenario.node[29].appl 	ArrivedAtDest 	1
scalar IntersectionExampleScenario.node[29].appl 	IntersectionEnterTime 	49.5
scalar IntersectionExampleScenario.node[29].appl 	IntersectionExitTime 	75.819793396658
scalar IntersectionExampleScenario.node[29].appl 	NumberOfCollisions 	0
scalar IntersectionExampleScenario.node[29].nic.phy80211p 	busyTime 	0
scalar IntersectionExampleScenario.node[29].nic.mac1609_4 	ReceivedUnicastPackets 	0
scalar IntersectionExampleScenario.node[29].nic.mac1609_4 	ReceivedBroadcasts 	0
scalar IntersectionExampleScenario.node[29].nic.mac1609_4 	SentPackets 	0
scalar IntersectionExampleScenario.node[29].nic.mac1609_4 	SNIRLostPackets 	0
scalar IntersectionExampleScenario.node[29].nic.mac1609_4 	RXTXLostPackets 	0
scalar IntersectionExampleScenario.node[29].nic.mac1609_4 	TotalLostPackets 	0
scalar IntersectionExampleScenario.node[29].nic.mac1609_4 	DroppedPacketsInMac 	0
scalar IntersectionExampleScenario.node[29].nic.mac1609_4 	TooLittleTime 	0
scalar IntersectionExampleScenario.node[29].nic.mac1609_4 	TimesIntoBackoff 	0
scalar IntersectionExampleScenario.node[29].nic.mac1609_4 	SlotsBackoff 	0
scalar IntersectionExampleScenario.node[29].nic.mac1609_4 	NumInternalContention 	0
scalar IntersectionExampleScenario.node[29].nic.mac1609_4 	totalBusyTime 	0
scalar IntersectionExampleScenario.node[29].veinsmobility 	startTime 	49.5
scalar IntersectionExampleScenario.node[29].veinsmobility 	totalTime 	43.25
scalar IntersectionExampleScenario.node[29].veinsmobility 	stopTime 	93
scalar IntersectionExampleScenario.node[29].veinsmobility 	minSpeed 	5.6500000953674
scalar IntersectionExampleScenario.node[29].veinsmobility 	maxSpeed 	15.02499961853
scalar IntersectionExampleScenario.node[29].veinsmobility 	totalDistance 	551.12155878105
scalar IntersectionExampleScenario.node[29].veinsmobility 	totalCO2Emission 	123.65083691957
scalar IntersectionExampleScenario.node[12].appl 	VehicleRemoved 	0
scalar IntersectionExampleScenario.node[12].appl 	ArrivedAtDest 	1
scalar IntersectionExampleScenario.node[12].appl 	IntersectionEnterTime 	21
scalar IntersectionExampleScenario.node[12].appl 	IntersectionExitTime 	79.359803074854
scalar IntersectionExampleScenario.node[12].appl 	NumberOfCollisions 	0
scalar IntersectionExampleScenario.node[12].nic.phy80211p 	busyTime 	0
scalar IntersectionExampleScenario.node[12].nic.mac1609_4 	ReceivedUnicastPackets 	0
scalar IntersectionExampleScenario.node[12].nic.mac1609_4 	ReceivedBroadcasts 	0
scalar IntersectionExampleScenario.node[12].nic.mac1609_4 	SentPackets 	0
scalar IntersectionExampleScenario.node[12].nic.mac1609_4 	SNIRLostPackets 	0
scalar IntersectionExampleScenario.node[12].nic.mac1609_4 	RXTXLostPackets 	0
scalar IntersectionExampleScenario.node[12].nic.mac1609_4 	TotalLostPackets 	0
scalar IntersectionExampleScenario.node[12].nic.mac1609_4 	DroppedPacketsInMac 	0
scalar IntersectionExampleScenario.node[12].nic.mac1609_4 	TooLittleTime 	0
scalar IntersectionExampleScenario.node[12].nic.mac1609_4 	TimesIntoBackoff 	0
scalar IntersectionExampleScenario.node[12].nic.mac1609_4 	SlotsBackoff 	0
scalar IntersectionExampleScenario.node[12].nic.mac1609_4 	NumInternalContention 	0
scalar IntersectionExampleScenario.node[12].nic.mac1609_4 	totalBusyTime 	0
scalar IntersectionExampleScenario.node[12].veinsmobility 	startTime 	21
scalar IntersectionExampleScenario.node[12].veinsmobility 	totalTime 	74.5
scalar IntersectionExampleScenario.node[12].veinsmobility 	stopTime 	95.75
scalar IntersectionExampleScenario.node[12].veinsmobility 	minSpeed 	0
scalar IntersectionExampleScenario.node[12].veinsmobility 	maxSpeed 	15.391575813293
scalar IntersectionExampleScenario.node[12].veinsmobility 	totalDistance 	563.61176834584
scalar IntersectionExampleScenario.node[12].veinsmobility 	totalCO2Emission 	176.73106749622
scalar IntersectionExampleScenario.node[9].appl 	VehicleRemoved 	0
scalar IntersectionExampleScenario.node[9].appl 	ArrivedAtDest 	1
scalar IntersectionExampleScenario.node[9].appl 	IntersectionEnterTime 	16
scalar IntersectionExampleScenario.node[9].appl 	IntersectionExitTime 	78.318496911379
scalar IntersectionExampleScenario.node[9].appl 	NumberOfCollisions 	0
scalar IntersectionExampleScenario.node[9].nic.phy80211p 	busyTime 	0
scalar IntersectionExampleScenario.node[9].nic.mac1609_4 	ReceivedUnicastPackets 	0
scalar IntersectionExampleScenario.node[9].nic.mac1609_4 	ReceivedBroadcasts 	0
scalar IntersectionExampleScenario.node[9].nic.mac1609_4 	SentPackets 	0
scalar IntersectionExampleScenario.node[9].nic.mac1609_4 	SNIRLostPackets 	0
scalar IntersectionExampleScenario.node[9].nic.mac1609_4 	RXTXLostPackets 	0
scalar IntersectionExampleScenario.node[9].nic.mac1609_4 	TotalLostPackets 	0
scalar IntersectionExampleScenario.node[9].nic.mac1609_4 	DroppedPacketsInMac 	0
scalar IntersectionExampleScenario.node[9].nic.mac1609_4 	TooLittleTime 	0
scalar IntersectionExampleScenario.node[9].nic.mac1609_4 	TimesIntoBackoff 	0
scalar IntersectionExampleScenario.node[9].nic.mac1609_4 	SlotsBackoff 	0
scalar IntersectionExampleScenario.node[9].nic.mac1609_4 	NumInternalContention 	0
scalar IntersectionExampleScenario.node[9].nic.mac1609_4 	totalBusyTime 	0
scalar IntersectionExampleScenario.node[9].veinsmobility 	startTime 	16
scalar IntersectionExampleScenario.node[9].veinsmobility 	totalTime 	79.5
scalar IntersectionExampleScenario.node[9].veinsmobility 	stopTime 	95.75
scalar IntersectionExampleScenario.node[9].veinsmobility 	minSpeed 	0
scalar IntersectionExampleScenario.node[9].veinsmobility 	maxSpeed 	14.304733276367
scalar IntersectionExampleScenario.node[9].veinsmobility 	totalDistance 	563.97563934326
scalar IntersectionExampleScenario.node[9].veinsmobility 	totalCO2Emission 	173.95207524423
scalar IntersectionExampleScenario.node[15].appl 	VehicleRemoved 	0
scalar IntersectionExampleScenario.node[15].appl 	ArrivedAtDest 	1
scalar IntersectionExampleScenario.node[15].appl 	IntersectionEnterTime 	27
scalar IntersectionExampleScenario.node[15].appl 	IntersectionExitTime 	81.547166557051
scalar IntersectionExampleScenario.node[15].appl 	NumberOfCollisions 	0
scalar IntersectionExampleScenario.node[15].nic.phy80211p 	busyTime 	0
scalar IntersectionExampleScenario.node[15].nic.mac1609_4 	ReceivedUnicastPackets 	0
scalar IntersectionExampleScenario.node[15].nic.mac1609_4 	ReceivedBroadcasts 	0
scalar IntersectionExampleScenario.node[15].nic.mac1609_4 	SentPackets 	0
scalar IntersectionExampleScenario.node[15].nic.mac1609_4 	SNIRLostPackets 	0
scalar IntersectionExampleScenario.node[15].nic.mac1609_4 	RXTXLostPackets 	0
scalar IntersectionExampleScenario.node[15].nic.mac1609_4 	TotalLostPackets 	0
scalar IntersectionExampleScenario.node[15].nic.mac1609_4 	DroppedPacketsInMac 	0
scalar IntersectionExampleScenario.node[15].nic.mac1609_4 	TooLittleTime 	0
scalar IntersectionExampleScenario.node[15].nic.mac1609_4 	TimesIntoBackoff 	0
scalar IntersectionExampleScenario.node[15].nic.mac1609_4 	SlotsBackoff 	0
scalar IntersectionExampleScenario.node[15].nic.mac1609_4 	NumInternalContention 	0
scalar IntersectionExampleScenario.node[15].nic.mac1609_4 	totalBusyTime 	0
scalar IntersectionExampleScenario.node[15].veinsmobility 	startTime 	27
scalar IntersectionExampleScenario.node[15].veinsmobility 	totalTime 	70.5
scalar IntersectionExampleScenario.node[15].veinsmobility 	stopTime 	97.75
scalar IntersectionExampleScenario.node[15].veinsmobility 	minSpeed 	0
scalar IntersectionExampleScenario.node[15].veinsmobility 	maxSpeed 	15.64999961853
scalar IntersectionExampleScenario.node[15].veinsmobility 	totalDistance 	551.72495269775
scalar IntersectionExampleScenario.node[15].veinsmobility 	totalCO2Emission 	159.2476150665
scalar IntersectionExampleScenario.node[23].appl 	VehicleRemoved 	0
scalar IntersectionExampleScenario.node[23].appl 	ArrivedAtDest 	1
scalar IntersectionExampleScenario.node[23].appl 	IntersectionEnterTime 	39.5
scalar IntersectionExampleScenario.node[23].appl 	IntersectionExitTime 	83.804449895979
scalar IntersectionExampleScenario.node[23].appl 	NumberOfCollisions 	0
scalar IntersectionExampleScenario.node[23].nic.phy80211p 	busyTime 	0
scalar IntersectionExampleScenario.node[23].nic.mac1609_4 	ReceivedUnicastPackets 	0
scalar IntersectionExampleScenario.node[23].nic.mac1609_4 	ReceivedBroadcasts 	0
scalar IntersectionExampleScenario.node[23].nic.mac1609_4 	SentPackets 	0
scalar IntersectionExampleScenario.node[23].nic.mac1609_4 	SNIRLostPackets 	0
scalar IntersectionExampleScenario.node[23].nic.mac1609_4 	RXTXLostPackets 	0
scalar IntersectionExampleScenario.node[23].nic.mac1609_4 	TotalLostPackets 	0
scalar IntersectionExampleScenario.node[23].nic.mac1609_4 	DroppedPacketsInMac 	0
scalar IntersectionExampleScenario.node[23].nic.mac1609_4 	TooLittleTime 	0
scalar IntersectionExampleScenario.node[23].nic.mac1609_4 	TimesIntoBackoff 	0
scalar IntersectionExampleScenario.node[23].nic.mac1609_4 	SlotsBackoff 	0
scalar IntersectionExampleScenario.node[23].nic.mac1609_4 	NumInternalContention 	0
scalar IntersectionExampleScenario.node[23].nic.mac1609_4 	totalBusyTime 	0
scalar IntersectionExampleScenario.node[23].veinsmobility 	startTime 	39.5
scalar IntersectionExampleScenario.node[23].veinsmobility 	totalTime 	60.25
scalar IntersectionExampleScenario.node[23].veinsmobility 	stopTime 	100
scalar IntersectionExampleScenario.node[23].veinsmobility 	minSpeed 	0
scalar IntersectionExampleScenario.node[23].veinsmobility 	maxSpeed 	15.64999961853
scalar IntersectionExampleScenario.node[23].veinsmobility 	totalDistance 	554.03592681885
scalar IntersectionExampleScenario.node[23].veinsmobility 	totalCO2Emission 	149.63193710626
scalar IntersectionExampleScenario.node[27].appl 	VehicleRemoved 	0
scalar IntersectionExampleScenario.node[27].appl 	ArrivedAtDest 	1
scalar IntersectionExampleScenario.node[27].appl 	IntersectionEnterTime 	45.25
scalar IntersectionExampleScenario.node[27].appl 	IntersectionExitTime 	86.57569564911
scalar IntersectionExampleScenario.node[27].appl 	NumberOfCollisions 	0
scalar IntersectionExampleScenario.node[27].nic.phy80211p 	busyTime 	0
scalar IntersectionExampleScenario.node[27].nic.mac1609_4 	ReceivedUnicastPackets 	0
scalar IntersectionExampleScenario.node[27].nic.mac1609_4 	ReceivedBroadcasts 	0
scalar IntersectionExampleScenario.node[27].nic.mac1609_4 	SentPackets 	0
scalar IntersectionExampleScenario.node[27].nic.mac1609_4 	SNIRLostPackets 	0
scalar IntersectionExampleScenario.node[27].nic.mac1609_4 	RXTXLostPackets 	0
scalar IntersectionExampleScenario.node[27].nic.mac1609_4 	TotalLostPackets 	0
scalar IntersectionExampleScenario.node[27].nic.mac1609_4 	DroppedPacketsInMac 	0
scalar IntersectionExampleScenario.node[27].nic.mac1609_4 	TooLittleTime 	0
scalar IntersectionExampleScenario.node[27].nic.mac1609_4 	TimesIntoBackoff 	0
scalar IntersectionExampleScenario.node[27].nic.mac1609_4 	SlotsBackoff 	0
scalar IntersectionExampleScenario.node[27].nic.mac1609_4 	NumInternalContention 	0
scalar IntersectionExampleScenario.node[27].nic.mac1609_4 	totalBusyTime 	0
scalar IntersectionExampleScenario.node[27].veinsmobility 	startTime 	45.25
scalar IntersectionExampleScenario.node[27].veinsmobility 	totalTime 	57.75
scalar IntersectionExampleScenario.node[27].veinsmobility 	stopTime 	103.25
scalar IntersectionExampleScenario.node[27].veinsmobility 	minSpeed 	0
scalar IntersectionExampleScenario.node[27].veinsmobility 	maxSpeed 	15.875
scalar IntersectionExampleScenario.node[27].veinsmobility 	totalDistance 	558.11583615691
scalar IntersectionExampleScenario.node[27].veinsmobility 	totalCO2Emission 	153.54954638869
scalar IntersectionExampleScenario.node[21].appl 	VehicleRemoved 	0
scalar IntersectionExampleScenario.node[21].appl 	ArrivedAtDest 	1
scalar IntersectionExampleScenario.node[21].appl 	IntersectionEnterTime 	38
scalar IntersectionExampleScenario.node[21].appl 	IntersectionExitTime 	87.312941846903
scalar IntersectionExampleScenario.node[21].appl 	NumberOfCollisions 	0
scalar IntersectionExampleScenario.node[21].nic.phy80211p 	busyTime 	0
scalar IntersectionExampleScenario.node[21].nic.mac1609_4 	ReceivedUnicastPackets 	0
scalar IntersectionExampleScenario.node[21].nic.mac1609_4 	ReceivedBroadcasts 	0
scalar IntersectionExampleScenario.node[21].nic.mac1609_4 	SentPackets 	0
scalar IntersectionExampleScenario.node[21].nic.mac1609_4 	SNIRLostPackets 	0
scalar IntersectionExampleScenario.node[21].nic.mac1609_4 	RXTXLostPackets 	0
scalar IntersectionExampleScenario.node[21].nic.mac1609_4 	TotalLostPackets 	0
scalar IntersectionExampleScenario.node[21].nic.mac1609_4 	DroppedPacketsInMac 	0
scalar IntersectionExampleScenario.node[21].nic.mac1609_4 	TooLittleTime 	0
scalar IntersectionExampleScenario.node[21].nic.mac1609_4 	TimesIntoBackoff 	0
scalar IntersectionExampleScenario.node[21].nic.mac1609_4 	SlotsBackoff 	0
scalar IntersectionExampleScenario.node[21].nic.mac1609_4 	NumInternalContention 	0
scalar IntersectionExampleScenario.node[21].nic.mac1609_4 	totalBusyTime 	0
scalar IntersectionExampleScenario.node[21].veinsmobility 	startTime 	38
scalar IntersectionExampleScenario.node[21].veinsmobility 	totalTime 	65
scalar IntersectionExampleScenario.node[21].veinsmobility 	stopTime 	103.25
scalar IntersectionExampleScenario.node[21].veinsmobility 	minSpeed 	0
scalar IntersectionExampleScenario.node[21].veinsmobility 	maxSpeed 	16
scalar IntersectionExampleScenario.node[21].veinsmobility 	totalDistance 	563.19594573975
scalar IntersectionExampleScenario.node[21].veinsmobility 	totalCO2Emission 	159.57227459121
scalar IntersectionExampleScenario.node[28].appl 	VehicleRemoved 	0
scalar IntersectionExampleScenario.node[28].appl 	ArrivedAtDest 	1
scalar IntersectionExampleScenario.node[28].appl 	IntersectionEnterTime 	48.75
scalar IntersectionExampleScenario.node[28].appl 	IntersectionExitTime 	88.325434400904
scalar IntersectionExampleScenario.node[28].appl 	NumberOfCollisions 	0
scalar IntersectionExampleScenario.node[28].nic.phy80211p 	busyTime 	0
scalar IntersectionExampleScenario.node[28].nic.mac1609_4 	ReceivedUnicastPackets 	0
scalar IntersectionExampleScenario.node[28].nic.mac1609_4 	ReceivedBroadcasts 	0
scalar IntersectionExampleScenario.node[28].nic.mac1609_4 	SentPackets 	0
scalar IntersectionExampleScenario.node[28].nic.mac1609_4 	SNIRLostPackets 	0
scalar IntersectionExampleScenario.node[28].nic.mac1609_4 	RXTXLostPackets 	0
scalar IntersectionExampleScenario.node[28].nic.mac1609_4 	TotalLostPackets 	0
scalar IntersectionExampleScenario.node[28].nic.mac1609_4 	DroppedPacketsInMac 	0
scalar IntersectionExampleScenario.node[28].nic.mac1609_4 	TooLittleTime 	0
scalar IntersectionExampleScenario.node[28].nic.mac1609_4 	TimesIntoBackoff 	0
scalar IntersectionExampleScenario.node[28].nic.mac1609_4 	SlotsBackoff 	0
scalar IntersectionExampleScenario.node[28].nic.mac1609_4 	NumInternalContention 	0
scalar IntersectionExampleScenario.node[28].nic.mac1609_4 	totalBusyTime 	0
scalar IntersectionExampleScenario.node[28].veinsmobility 	startTime 	48.75
scalar IntersectionExampleScenario.node[28].veinsmobility 	totalTime 	54.75
scalar IntersectionExampleScenario.node[28].veinsmobility 	stopTime 	103.75
scalar IntersectionExampleScenario.node[28].veinsmobility 	minSpeed 	0
scalar IntersectionExampleScenario.node[28].veinsmobility 	maxSpeed 	16.75
scalar IntersectionExampleScenario.node[28].veinsmobility 	totalDistance 	570.89190673828
scalar IntersectionExampleScenario.node[28].veinsmobility 	totalCO2Emission 	157.57898665065
scalar IntersectionExampleScenario.node[34].appl 	VehicleRemoved 	0
scalar IntersectionExampleScenario.node[34].appl 	ArrivedAtDest 	1
scalar IntersectionExampleScenario.node[34].appl 	IntersectionEnterTime 	61.25
scalar IntersectionExampleScenario.node[34].appl 	IntersectionExitTime 	89.539029799314
scalar IntersectionExampleScenario.node[34].appl 	NumberOfCollisions 	0
scalar IntersectionExampleScenario.node[34].nic.phy80211p 	busyTime 	0
scalar IntersectionExampleScenario.node[34].nic.mac1609_4 	ReceivedUnicastPackets 	0
scalar IntersectionExampleScenario.node[34].nic.mac1609_4 	ReceivedBroadcasts 	0
scalar IntersectionExampleScenario.node[34].nic.mac1609_4 	SentPackets 	0
scalar IntersectionExampleScenario.node[34].nic.mac1609_4 	SNIRLostPackets 	0
scalar IntersectionExampleScenario.node[34].nic.mac1609_4 	RXTXLostPackets 	0
scalar IntersectionExampleScenario.node[34].nic.mac1609_4 	TotalLostPackets 	0
scalar IntersectionExampleScenario.node[34].nic.mac1609_4 	DroppedPacketsInMac 	0
scalar IntersectionExampleScenario.node[34].nic.mac1609_4 	TooLittleTime 	0
scalar IntersectionExampleScenario.node[34].nic.mac1609_4 	TimesIntoBackoff 	0
scalar IntersectionExampleScenario.node[34].nic.mac1609_4 	SlotsBackoff 	0
scalar IntersectionExampleScenario.node[34].nic.mac1609_4 	NumInternalContention 	0
scalar IntersectionExampleScenario.node[34].nic.mac1609_4 	totalBusyTime 	0
scalar IntersectionExampleScenario.node[34].veinsmobility 	startTime 	61.25
scalar IntersectionExampleScenario.node[34].veinsmobility 	totalTime 	43.75
scalar IntersectionExampleScenario.node[34].veinsmobility 	stopTime 	105.25
scalar IntersectionExampleScenario.node[34].veinsmobility 	minSpeed 	4.0340261459351
scalar IntersectionExampleScenario.node[34].veinsmobility 	maxSpeed 	16.27499961853
scalar IntersectionExampleScenario.node[34].veinsmobility 	totalDistance 	552.79721832275
scalar IntersectionExampleScenario.node[34].veinsmobility 	totalCO2Emission 	137.68739268579
scalar IntersectionExampleScenario.node[32].appl 	VehicleRemoved 	0
scalar IntersectionExampleScenario.node[32].appl 	ArrivedAtDest 	1
scalar IntersectionExampleScenario.node[32].appl 	IntersectionEnterTime 	54
scalar IntersectionExampleScenario.node[32].appl 	IntersectionExitTime 	90.513201582624
scalar IntersectionExampleScenario.node[32].appl 	NumberOfCollisions 	0
scalar IntersectionExampleScenario.node[32].nic.phy80211p 	busyTime 	0
scalar IntersectionExampleScenario.node[32].nic.mac1609_4 	ReceivedUnicastPackets 	0
scalar IntersectionExampleScenario.node[32].nic.mac1609_4 	ReceivedBroadcasts 	0
scalar IntersectionExampleScenario.node[32].nic.mac1609_4 	SentPackets 	0
scalar IntersectionExampleScenario.node[32].nic.mac1609_4 	SNIRLostPackets 	0
scalar IntersectionExampleScenario.node[32].nic.mac1609_4 	RXTXLostPackets 	0
scalar IntersectionExampleScenario.node[32].nic.mac1609_4 	TotalLostPackets 	0
scalar IntersectionExampleScenario.node[32].nic.mac1609_4 	DroppedPacketsInMac 	0
scalar IntersectionExampleScenario.node[32].nic.mac1609_4 	TooLittleTime 	0
scalar IntersectionExampleScenario.node[32].nic.mac1609_4 	TimesIntoBackoff 	0
scalar IntersectionExampleScenario.node[32].nic.mac1609_4 	SlotsBackoff 	0
scalar IntersectionExampleScenario.node[32].nic.mac1609_4 	NumInternalContention 	0
scalar IntersectionExampleScenario.node[32].nic.mac1609_4 	totalBusyTime 	0
scalar IntersectionExampleScenario.node[32].veinsmobility 	startTime 	54
scalar IntersectionExampleScenario.node[32].veinsmobility 	totalTime 	52.75
scalar IntersectionExampleScenario.node[32].veinsmobility 	stopTime 	107
scalar IntersectionExampleScenario.node[32].veinsmobility 	minSpeed 	0
scalar IntersectionExampleScenario.node[32].veinsmobility 	maxSpeed 	15.5
scalar IntersectionExampleScenario.node[32].veinsmobility 	totalDistance 	531.57316589355
scalar IntersectionExampleScenario.node[32].veinsmobility 	totalCO2Emission 	139.02603436706
scalar IntersectionExampleScenario.node[30].appl 	VehicleRemoved 	0
scalar IntersectionExampleScenario.node[30].appl 	ArrivedAtDest 	1
scalar IntersectionExampleScenario.node[30].appl 	IntersectionEnterTime 	51
scalar IntersectionExampleScenario.node[30].appl 	IntersectionExitTime 	93.005279120349
scalar IntersectionExampleScenario.node[30].appl 	NumberOfCollisions 	0
scalar IntersectionExampleScenario.node[30].nic.phy80211p 	busyTime 	0
scalar IntersectionExampleScenario.node[30].nic.mac1609_4 	ReceivedUnicastPackets 	0
scalar IntersectionExampleScenario.node[30].nic.mac1609_4 	ReceivedBroadcasts 	0
scalar IntersectionExampleScenario.node[30].nic.mac1609_4 	SentPackets 	0
scalar IntersectionExampleScenario.node[30].nic.mac1609_4 	SNIRLostPackets 	0
scalar IntersectionExampleScenario.node[30].nic.mac1609_4 	RXTXLostPackets 	0
scalar IntersectionExampleScenario.node[30].nic.mac1609_4 	TotalLostPackets 	0
scalar IntersectionExampleScenario.node[30].nic.mac1609_4 	DroppedPacketsInMac 	0
scalar IntersectionExampleScenario.node[30].nic.mac1609_4 	TooLittleTime 	0
scalar IntersectionExampleScenario.node[30].nic.mac1609_4 	TimesIntoBackoff 	0
scalar IntersectionExampleScenario.node[30].nic.mac1609_4 	SlotsBackoff 	0
scalar IntersectionExampleScenario.node[30].nic.mac1609_4 	NumInternalContention 	0
scalar IntersectionExampleScenario.node[30].nic.mac1609_4 	totalBusyTime 	0
scalar IntersectionExampleScenario.node[30].veinsmobility 	startTime 	51
scalar IntersectionExampleScenario.node[30].veinsmobility 	totalTime 	57.5
scalar IntersectionExampleScenario.node[30].veinsmobility 	stopTime 	108.75
scalar IntersectionExampleScenario.node[30].veinsmobility 	minSpeed 	0
scalar IntersectionExampleScenario.node[30].veinsmobility 	maxSpeed 	15.842469215393
scalar IntersectionExampleScenario.node[30].veinsmobility 	totalDistance 	576.74754333496
scalar IntersectionExampleScenario.node[30].veinsmobility 	totalCO2Emission 	168.26251873006
scalar IntersectionExampleScenario.node[37].appl 	VehicleRemoved 	0
scalar IntersectionExampleScenario.node[37].appl 	ArrivedAtDest 	1
scalar IntersectionExampleScenario.node[37].appl 	IntersectionEnterTime 	68.5
scalar IntersectionExampleScenario.node[37].appl 	IntersectionExitTime 	92.596270950395
scalar IntersectionExampleScenario.node[37].appl 	NumberOfCollisions 	0
scalar IntersectionExampleScenario.node[37].nic.phy80211p 	busyTime 	0
scalar IntersectionExampleScenario.node[37].nic.mac1609_4 	ReceivedUnicastPackets 	0
scalar IntersectionExampleScenario.node[37].nic.mac1609_4 	ReceivedBroadcasts 	0
scalar IntersectionExampleScenario.node[37].nic.mac1609_4 	SentPackets 	0
scalar IntersectionExampleScenario.node[37].nic.mac1609_4 	SNIRLostPackets 	0
scalar IntersectionExampleScenario.node[37].nic.mac1609_4 	RXTXLostPackets 	0
scalar IntersectionExampleScenario.node[37].nic.mac1609_4 	TotalLostPackets 	0
scalar IntersectionExampleScenario.node[37].nic.mac1609_4 	DroppedPacketsInMac 	0
scalar IntersectionExampleScenario.node[37].nic.mac1609_4 	TooLittleTime 	0
scalar IntersectionExampleScenario.node[37].nic.mac1609_4 	TimesIntoBackoff 	0
scalar IntersectionExampleScenario.node[37].nic.mac1609_4 	SlotsBackoff 	0
scalar IntersectionExampleScenario.node[37].nic.mac1609_4 	NumInternalContention 	0
scalar IntersectionExampleScenario.node[37].nic.mac1609_4 	totalBusyTime 	0
scalar IntersectionExampleScenario.node[37].veinsmobility 	startTime 	68.5
scalar IntersectionExampleScenario.node[37].veinsmobility 	totalTime 	40
scalar IntersectionExampleScenario.node[37].veinsmobility 	stopTime 	108.75
scalar IntersectionExampleScenario.node[37].veinsmobility 	minSpeed 	5.6500000953674
scalar IntersectionExampleScenario.node[37].veinsmobility 	maxSpeed 	15.64999961853
scalar IntersectionExampleScenario.node[37].veinsmobility 	totalDistance 	553.35642242432
scalar IntersectionExampleScenario.node[37].veinsmobility 	totalCO2Emission 	127.73144853677
scalar IntersectionExampleScenario.node[39].appl 	VehicleRemoved 	0
scalar IntersectionExampleScenario.node[39].appl 	ArrivedAtDest 	1
scalar IntersectionExampleScenario.node[39].appl 	IntersectionEnterTime 	71
scalar IntersectionExampleScenario.node[39].appl 	IntersectionExitTime 	94.814314470888
scalar IntersectionExampleScenario.node[39].appl 	NumberOfCollisions 	0
scalar IntersectionExampleScenario.node[39].nic.phy80211p 	busyTime 	0
scalar IntersectionExampleScenario.node[39].nic.mac1609_4 	ReceivedUnicastPackets 	0
scalar IntersectionExampleScenario.node[39].nic.mac1609_4 	ReceivedBroadcasts 	0
scalar IntersectionExampleScenario.node[39].nic.mac1609_4 	SentPackets 	0
scalar IntersectionExampleScenario.node[39].nic.mac1609_4 	SNIRLostPackets 	0
scalar IntersectionExampleScenario.node[39].nic.mac1609_4 	RXTXLostPackets 	0
scalar IntersectionExampleScenario.node[39].nic.mac1609_4 	TotalLostPackets 	0
scalar IntersectionExampleScenario.node[39].nic.mac1609_4 	DroppedPacketsInMac 	0
scalar IntersectionExampleScenario.node[39].nic.mac1609_4 	TooLittleTime 	0
scalar IntersectionExampleScenario.node[39].nic.mac1609_4 	TimesIntoBackoff 	0
scalar IntersectionExampleScenario.node[39].nic.mac1609_4 	SlotsBackoff 	0
scalar IntersectionExampleScenario.node[39].nic.mac1609_4 	NumInternalContention 	0
scalar IntersectionExampleScenario.node[39].nic.mac1609_4 	totalBusyTime 	0
scalar IntersectionExampleScenario.node[39].veinsmobility 	startTime 	71
scalar IntersectionExampleScenario.node[39].veinsmobility 	totalTime 	39.25
scalar IntersectionExampleScenario.node[39].veinsmobility 	stopTime 	110.5
scalar IntersectionExampleScenario.node[39].veinsmobility 	minSpeed 	5.6500000953674
scalar IntersectionExampleScenario.node[39].veinsmobility 	maxSpeed 	17.125
scalar IntersectionExampleScenario.node[39].veinsmobility 	totalDistance 	558.92706787029
scalar IntersectionExampleScenario.node[39].veinsmobility 	totalCO2Emission 	136.42754415445
scalar IntersectionExampleScenario.node[31].appl 	VehicleRemoved 	0
scalar IntersectionExampleScenario.node[31].appl 	ArrivedAtDest 	1
scalar IntersectionExampleScenario.node[31].appl 	IntersectionEnterTime 	52.5
scalar IntersectionExampleScenario.node[31].appl 	IntersectionExitTime 	95.801697229617
scalar IntersectionExampleScenario.node[31].appl 	NumberOfCollisions 	0
scalar IntersectionExampleScenario.node[31].nic.phy80211p 	busyTime 	0
scalar IntersectionExampleScenario.node[31].nic.mac1609_4 	ReceivedUnicastPackets 	0
scalar IntersectionExampleScenario.node[31].nic.mac1609_4 	ReceivedBroadcasts 	0
scalar IntersectionExampleScenario.node[31].nic.mac1609_4 	SentPackets 	0
scalar IntersectionExampleScenario.node[31].nic.mac1609_4 	SNIRLostPackets 	0
scalar IntersectionExampleScenario.node[31].nic.mac1609_4 	RXTXLostPackets 	0
scalar IntersectionExampleScenario.node[31].nic.mac1609_4 	TotalLostPackets 	0
scalar IntersectionExampleScenario.node[31].nic.mac1609_4 	DroppedPacketsInMac 	0
scalar IntersectionExampleScenario.node[31].nic.mac1609_4 	TooLittleTime 	0
scalar IntersectionExampleScenario.node[31].nic.mac1609_4 	TimesIntoBackoff 	0
scalar IntersectionExampleScenario.node[31].nic.mac1609_4 	SlotsBackoff 	0
scalar IntersectionExampleScenario.node[31].nic.mac1609_4 	NumInternalContention 	0
scalar IntersectionExampleScenario.node[31].nic.mac1609_4 	totalBusyTime 	0
scalar IntersectionExampleScenario.node[31].veinsmobility 	startTime 	52.5
scalar IntersectionExampleScenario.node[31].veinsmobility 	totalTime 	60.25
scalar IntersectionExampleScenario.node[31].veinsmobility 	stopTime 	113
scalar IntersectionExampleScenario.node[31].veinsmobility 	minSpeed 	0
scalar IntersectionExampleScenario.node[31].veinsmobility 	maxSpeed 	14.508327484131
scalar IntersectionExampleScenario.node[31].veinsmobility 	totalDistance 	586.02249145508
scalar IntersectionExampleScenario.node[31].veinsmobility 	totalCO2Emission 	147.0518585592
scalar IntersectionExampleScenario.node[38].appl 	VehicleRemoved 	0
scalar IntersectionExampleScenario.node[38].appl 	ArrivedAtDest 	1
scalar IntersectionExampleScenario.node[38].appl 	IntersectionEnterTime 	69.25
scalar IntersectionExampleScenario.node[38].appl 	IntersectionExitTime 	97.845865298441
scalar IntersectionExampleScenario.node[38].appl 	NumberOfCollisions 	0
scalar IntersectionExampleScenario.node[38].nic.phy80211p 	busyTime 	0
scalar IntersectionExampleScenario.node[38].nic.mac1609_4 	ReceivedUnicastPackets 	0
scalar IntersectionExampleScenario.node[38].nic.mac1609_4 	ReceivedBroadcasts 	0
scalar IntersectionExampleScenario.node[38].nic.mac1609_4 	SentPackets 	0
scalar IntersectionExampleScenario.node[38].nic.mac1609_4 	SNIRLostPackets 	0
scalar IntersectionExampleScenario.node[38].nic.mac1609_4 	RXTXLostPackets 	0
scalar IntersectionExampleScenario.node[38].nic.mac1609_4 	TotalLostPackets 	0
scalar IntersectionExampleScenario.node[38].nic.mac1609_4 	DroppedPacketsInMac 	0
scalar IntersectionExampleScenario.node[38].nic.mac1609_4 	TooLittleTime 	0
scalar IntersectionExampleScenario.node[38].nic.mac1609_4 	TimesIntoBackoff 	0
scalar IntersectionExampleScenario.node[38].nic.mac1609_4 	SlotsBackoff 	0
scalar IntersectionExampleScenario.node[38].nic.mac1609_4 	NumInternalContention 	0
scalar IntersectionExampleScenario.node[38].nic.mac1609_4 	totalBusyTime 	0
scalar IntersectionExampleScenario.node[38].veinsmobility 	startTime 	69.25
scalar IntersectionExampleScenario.node[38].veinsmobility 	totalTime 	44.5
scalar IntersectionExampleScenario.node[38].veinsmobility 	stopTime 	114
scalar IntersectionExampleScenario.node[38].veinsmobility 	minSpeed 	5.6500000953674
scalar IntersectionExampleScenario.node[38].veinsmobility 	maxSpeed 	16.5
scalar IntersectionExampleScenario.node[38].veinsmobility 	totalDistance 	543.80859649458
scalar IntersectionExampleScenario.node[38].veinsmobility 	totalCO2Emission 	146.34341740366
scalar IntersectionExampleScenario.node[36].appl 	VehicleRemoved 	0
scalar IntersectionExampleScenario.node[36].appl 	ArrivedAtDest 	1
scalar IntersectionExampleScenario.node[36].appl 	IntersectionEnterTime 	63.5
scalar IntersectionExampleScenario.node[36].appl 	IntersectionExitTime 	100.35052076599
scalar IntersectionExampleScenario.node[36].appl 	NumberOfCollisions 	0
scalar IntersectionExampleScenario.node[36].nic.phy80211p 	busyTime 	0
scalar IntersectionExampleScenario.node[36].nic.mac1609_4 	ReceivedUnicastPackets 	0
scalar IntersectionExampleScenario.node[36].nic.mac1609_4 	ReceivedBroadcasts 	0
scalar IntersectionExampleScenario.node[36].nic.mac1609_4 	SentPackets 	0
scalar IntersectionExampleScenario.node[36].nic.mac1609_4 	SNIRLostPackets 	0
scalar IntersectionExampleScenario.node[36].nic.mac1609_4 	RXTXLostPackets 	0
scalar IntersectionExampleScenario.node[36].nic.mac1609_4 	TotalLostPackets 	0
scalar IntersectionExampleScenario.node[36].nic.mac1609_4 	DroppedPacketsInMac 	0
scalar IntersectionExampleScenario.node[36].nic.mac1609_4 	TooLittleTime 	0
scalar IntersectionExampleScenario.node[36].nic.mac1609_4 	TimesIntoBackoff 	0
scalar IntersectionExampleScenario.node[36].nic.mac1609_4 	SlotsBackoff 	0
scalar IntersectionExampleScenario.node[36].nic.mac1609_4 	NumInternalContention 	0
scalar IntersectionExampleScenario.node[36].nic.mac1609_4 	totalBusyTime 	0
scalar IntersectionExampleScenario.node[36].veinsmobility 	startTime 	63.5
scalar IntersectionExampleScenario.node[36].veinsmobility 	totalTime 	53.5
scalar IntersectionExampleScenario.node[36].veinsmobility 	stopTime 	117.25
scalar IntersectionExampleScenario.node[36].veinsmobility 	minSpeed 	0
scalar IntersectionExampleScenario.node[36].veinsmobility 	maxSpeed 	15.02499961853
scalar IntersectionExampleScenario.node[36].veinsmobility 	totalDistance 	554.82191467285
scalar IntersectionExampleScenario.node[36].veinsmobility 	totalCO2Emission 	141.29481928349
scalar IntersectionExampleScenario.node[24].appl 	VehicleRemoved 	0
scalar IntersectionExampleScenario.node[24].appl 	ArrivedAtDest 	1
scalar IntersectionExampleScenario.node[24].appl 	IntersectionEnterTime 	40.25
scalar IntersectionExampleScenario.node[24].appl 	IntersectionExitTime 	110.35978323145
scalar IntersectionExampleScenario.node[24].appl 	NumberOfCollisions 	0
scalar IntersectionExampleScenario.node[24].nic.phy80211p 	busyTime 	0
scalar IntersectionExampleScenario.node[24].nic.mac1609_4 	ReceivedUnicastPackets 	0
scalar IntersectionExampleScenario.node[24].nic.mac1609_4 	ReceivedBroadcasts 	0
scalar IntersectionExampleScenario.node[24].nic.mac1609_4 	SentPackets 	0
scalar IntersectionExampleScenario.node[24].nic.mac1609_4 	SNIRLostPackets 	0
scalar IntersectionExampleScenario.node[24].nic.mac1609_4 	RXTXLostPackets 	0
scalar IntersectionExampleScenario.node[24].nic.mac1609_4 	TotalLostPackets 	0
scalar IntersectionExampleScenario.node[24].nic.mac1609_4 	DroppedPacketsInMac 	0
scalar IntersectionExampleScenario.node[24].nic.mac1609_4 	TooLittleTime 	0
scalar IntersectionExampleScenario.node[24].nic.mac1609_4 	TimesIntoBackoff 	0
scalar IntersectionExampleScenario.node[24].nic.mac1609_4 	SlotsBackoff 	0
scalar IntersectionExampleScenario.node[24].nic.mac1609_4 	NumInternalContention 	0
scalar IntersectionExampleScenario.node[24].nic.mac1609_4 	totalBusyTime 	0
scalar IntersectionExampleScenario.node[24].veinsmobility 	startTime 	40.25
scalar IntersectionExampleScenario.node[24].veinsmobility 	totalTime 	87
scalar IntersectionExampleScenario.node[24].veinsmobility 	stopTime 	127.5
scalar IntersectionExampleScenario.node[24].veinsmobility 	minSpeed 	0
scalar IntersectionExampleScenario.node[24].veinsmobility 	maxSpeed 	14.75
scalar IntersectionExampleScenario.node[24].veinsmobility 	totalDistance 	577.11731719971
scalar IntersectionExampleScenario.node[24].veinsmobility 	totalCO2Emission 	183.53910112644
scalar IntersectionExampleScenario.node[33].appl 	VehicleRemoved 	0
scalar IntersectionExampleScenario.node[33].appl 	ArrivedAtDest 	1
scalar IntersectionExampleScenario.node[33].appl 	IntersectionEnterTime 	59.75
scalar IntersectionExampleScenario.node[33].appl 	IntersectionExitTime 	111.01592565616
scalar IntersectionExampleScenario.node[33].appl 	NumberOfCollisions 	0
scalar IntersectionExampleScenario.node[33].nic.phy80211p 	busyTime 	0
scalar IntersectionExampleScenario.node[33].nic.mac1609_4 	ReceivedUnicastPackets 	0
scalar IntersectionExampleScenario.node[33].nic.mac1609_4 	ReceivedBroadcasts 	0
scalar IntersectionExampleScenario.node[33].nic.mac1609_4 	SentPackets 	0
scalar IntersectionExampleScenario.node[33].nic.mac1609_4 	SNIRLostPackets 	0
scalar IntersectionExampleScenario.node[33].nic.mac1609_4 	RXTXLostPackets 	0
scalar IntersectionExampleScenario.node[33].nic.mac1609_4 	TotalLostPackets 	0
scalar IntersectionExampleScenario.node[33].nic.mac1609_4 	DroppedPacketsInMac 	0
scalar IntersectionExampleScenario.node[33].nic.mac1609_4 	TooLittleTime 	0
scalar IntersectionExampleScenario.node[33].nic.mac1609_4 	TimesIntoBackoff 	0
scalar IntersectionExampleScenario.node[33].nic.mac1609_4 	SlotsBackoff 	0
scalar IntersectionExampleScenario.node[33].nic.mac1609_4 	NumInternalContention 	0
scalar IntersectionExampleScenario.node[33].nic.mac1609_4 	totalBusyTime 	0
scalar IntersectionExampleScenario.node[33].veinsmobility 	startTime 	59.75
scalar IntersectionExampleScenario.node[33].veinsmobility 	totalTime 	68.75
scalar IntersectionExampleScenario.node[33].veinsmobility 	stopTime 	128.75
scalar IntersectionExampleScenario.node[33].veinsmobility 	minSpeed 	0
scalar IntersectionExampleScenario.node[33].veinsmobility 	maxSpeed 	15.02499961853
scalar IntersectionExampleScenario.node[33].veinsmobility 	totalDistance 	546.4592488597
scalar IntersectionExampleScenario.node[33].veinsmobility 	totalCO2Emission 	162.55955413311
scalar IntersectionExampleScenario.node[35].appl 	VehicleRemoved 	0
scalar IntersectionExampleScenario.node[35].appl 	ArrivedAtDest 	1
scalar IntersectionExampleScenario.node[35].appl 	IntersectionEnterTime 	63.25
scalar IntersectionExampleScenario.node[35].appl 	IntersectionExitTime 	113.56843268292
scalar IntersectionExampleScenario.node[35].appl 	NumberOfCollisions 	0
scalar IntersectionExampleScenario.node[35].nic.phy80211p 	busyTime 	0
scalar IntersectionExampleScenario.node[35].nic.mac1609_4 	ReceivedUnicastPackets 	0
scalar IntersectionExampleScenario.node[35].nic.mac1609_4 	ReceivedBroadcasts 	0
scalar IntersectionExampleScenario.node[35].nic.mac1609_4 	SentPackets 	0
scalar IntersectionExampleScenario.node[35].nic.mac1609_4 	SNIRLostPackets 	0
scalar IntersectionExampleScenario.node[35].nic.mac1609_4 	RXTXLostPackets 	0
scalar IntersectionExampleScenario.node[35].nic.mac1609_4 	TotalLostPackets 	0
scalar IntersectionExampleScenario.node[35].nic.mac1609_4 	DroppedPacketsInMac 	0
scalar IntersectionExampleScenario.node[35].nic.mac1609_4 	TooLittleTime 	0
scalar IntersectionExampleScenario.node[35].nic.mac1609_4 	TimesIntoBackoff 	0
scalar IntersectionExampleScenario.node[35].nic.mac1609_4 	SlotsBackoff 	0
scalar IntersectionExampleScenario.node[35].nic.mac1609_4 	NumInternalContention 	0
[...]
scalar IntersectionExampleScenario.node[798].veinsmobility 	totalCO2Emission 	110.29605639544
scalar IntersectionExampleScenario.node[799].appl 	VehicleRemoved 	0
scalar IntersectionExampleScenario.node[799].appl 	ArrivedAtDest 	0
scalar IntersectionExampleScenario.node[799].appl 	IntersectionEnterTime 	1769.25
scalar IntersectionExampleScenario.node[799].appl 	IntersectionExitTime 	1793.0256267134
scalar IntersectionExampleScenario.node[799].appl 	NumberOfCollisions 	0
scalar IntersectionExampleScenario.node[799].nic.phy80211p 	busyTime 	0
scalar IntersectionExampleScenario.node[799].nic.mac1609_4 	ReceivedUnicastPackets 	0
scalar IntersectionExampleScenario.node[799].nic.mac1609_4 	ReceivedBroadcasts 	0
scalar IntersectionExampleScenario.node[799].nic.mac1609_4 	SentPackets 	0
scalar IntersectionExampleScenario.node[799].nic.mac1609_4 	SNIRLostPackets 	0
scalar IntersectionExampleScenario.node[799].nic.mac1609_4 	RXTXLostPackets 	0
scalar IntersectionExampleScenario.node[799].nic.mac1609_4 	TotalLostPackets 	0
scalar IntersectionExampleScenario.node[799].nic.mac1609_4 	DroppedPacketsInMac 	0
scalar IntersectionExampleScenario.node[799].nic.mac1609_4 	TooLittleTime 	0
scalar IntersectionExampleScenario.node[799].nic.mac1609_4 	TimesIntoBackoff 	0
scalar IntersectionExampleScenario.node[799].nic.mac1609_4 	SlotsBackoff 	0
scalar IntersectionExampleScenario.node[799].nic.mac1609_4 	NumInternalContention 	0
scalar IntersectionExampleScenario.node[799].nic.mac1609_4 	totalBusyTime 	0
scalar IntersectionExampleScenario.node[799].veinsmobility 	startTime 	1769.25
scalar IntersectionExampleScenario.node[799].veinsmobility 	totalTime 	30.75
scalar IntersectionExampleScenario.node[799].veinsmobility 	stopTime 	1800
scalar IntersectionExampleScenario.node[799].veinsmobility 	minSpeed 	5.6500000953674
scalar IntersectionExampleScenario.node[799].veinsmobility 	maxSpeed 	15.64999961853
scalar IntersectionExampleScenario.node[799].veinsmobility 	totalDistance 	431.4208984375
scalar IntersectionExampleScenario.node[799].veinsmobility 	totalCO2Emission 	100.47388693254
scalar IntersectionExampleScenario.node[800].appl 	VehicleRemoved 	0
scalar IntersectionExampleScenario.node[800].appl 	ArrivedAtDest 	0
scalar IntersectionExampleScenario.node[800].appl 	IntersectionEnterTime 	1775.25
scalar IntersectionExampleScenario.node[800].appl 	IntersectionExitTime 	-1
scalar IntersectionExampleScenario.node[800].appl 	NumberOfCollisions 	0
scalar IntersectionExampleScenario.node[800].nic.phy80211p 	busyTime 	0
scalar IntersectionExampleScenario.node[800].nic.mac1609_4 	ReceivedUnicastPackets 	0
scalar IntersectionExampleScenario.node[800].nic.mac1609_4 	ReceivedBroadcasts 	0
scalar IntersectionExampleScenario.node[800].nic.mac1609_4 	SentPackets 	0
scalar IntersectionExampleScenario.node[800].nic.mac1609_4 	SNIRLostPackets 	0
scalar IntersectionExampleScenario.node[800].nic.mac1609_4 	RXTXLostPackets 	0
scalar IntersectionExampleScenario.node[800].nic.mac1609_4 	TotalLostPackets 	0
scalar IntersectionExampleScenario.node[800].nic.mac1609_4 	DroppedPacketsInMac 	0
scalar IntersectionExampleScenario.node[800].nic.mac1609_4 	TooLittleTime 	0
scalar IntersectionExampleScenario.node[800].nic.mac1609_4 	TimesIntoBackoff 	0
scalar IntersectionExampleScenario.node[800].nic.mac1609_4 	SlotsBackoff 	0
scalar IntersectionExampleScenario.node[800].nic.mac1609_4 	NumInternalContention 	0
scalar IntersectionExampleScenario.node[800].nic.mac1609_4 	totalBusyTime 	0
scalar IntersectionExampleScenario.node[800].veinsmobility 	startTime 	1775.25
scalar IntersectionExampleScenario.node[800].veinsmobility 	totalTime 	24.75
scalar IntersectionExampleScenario.node[800].veinsmobility 	stopTime 	1800
scalar IntersectionExampleScenario.node[800].veinsmobility 	minSpeed 	5.6500000953674
scalar IntersectionExampleScenario.node[800].veinsmobility 	maxSpeed 	14.764664649963
scalar IntersectionExampleScenario.node[800].veinsmobility 	totalDistance 	306.47825274161
scalar IntersectionExampleScenario.node[800].veinsmobility 	totalCO2Emission 	78.360371025627
scalar IntersectionExampleScenario.node[801].appl 	VehicleRemoved 	0
scalar IntersectionExampleScenario.node[801].appl 	ArrivedAtDest 	0
scalar IntersectionExampleScenario.node[801].appl 	IntersectionEnterTime 	1775.75
scalar IntersectionExampleScenario.node[801].appl 	IntersectionExitTime 	-1
scalar IntersectionExampleScenario.node[801].appl 	NumberOfCollisions 	0
scalar IntersectionExampleScenario.node[801].nic.phy80211p 	busyTime 	0
scalar IntersectionExampleScenario.node[801].nic.mac1609_4 	ReceivedUnicastPackets 	0
scalar IntersectionExampleScenario.node[801].nic.mac1609_4 	ReceivedBroadcasts 	0
scalar IntersectionExampleScenario.node[801].nic.mac1609_4 	SentPackets 	0
scalar IntersectionExampleScenario.node[801].nic.mac1609_4 	SNIRLostPackets 	0
scalar IntersectionExampleScenario.node[801].nic.mac1609_4 	RXTXLostPackets 	0
scalar IntersectionExampleScenario.node[801].nic.mac1609_4 	TotalLostPackets 	0
scalar IntersectionExampleScenario.node[801].nic.mac1609_4 	DroppedPacketsInMac 	0
scalar IntersectionExampleScenario.node[801].nic.mac1609_4 	TooLittleTime 	0
scalar IntersectionExampleScenario.node[801].nic.mac1609_4 	TimesIntoBackoff 	0
scalar IntersectionExampleScenario.node[801].nic.mac1609_4 	SlotsBackoff 	0
scalar IntersectionExampleScenario.node[801].nic.mac1609_4 	NumInternalContention 	0
scalar IntersectionExampleScenario.node[801].nic.mac1609_4 	totalBusyTime 	0
scalar IntersectionExampleScenario.node[801].veinsmobility 	startTime 	1775.75
scalar IntersectionExampleScenario.node[801].veinsmobility 	totalTime 	24.25
scalar IntersectionExampleScenario.node[801].veinsmobility 	stopTime 	1800
scalar IntersectionExampleScenario.node[801].veinsmobility 	minSpeed 	5.6500000953674
scalar IntersectionExampleScenario.node[801].veinsmobility 	maxSpeed 	15.487105369568
scalar IntersectionExampleScenario.node[801].veinsmobility 	totalDistance 	310.14190673828
scalar IntersectionExampleScenario.node[801].veinsmobility 	totalCO2Emission 	84.689702268572
scalar IntersectionExampleScenario.node[802].appl 	VehicleRemoved 	0
scalar IntersectionExampleScenario.node[802].appl 	ArrivedAtDest 	0
scalar IntersectionExampleScenario.node[802].appl 	IntersectionEnterTime 	1776.25
scalar IntersectionExampleScenario.node[802].appl 	IntersectionExitTime 	-1
scalar IntersectionExampleScenario.node[802].appl 	NumberOfCollisions 	0
scalar IntersectionExampleScenario.node[802].nic.phy80211p 	busyTime 	0
scalar IntersectionExampleScenario.node[802].nic.mac1609_4 	ReceivedUnicastPackets 	0
scalar IntersectionExampleScenario.node[802].nic.mac1609_4 	ReceivedBroadcasts 	0
scalar IntersectionExampleScenario.node[802].nic.mac1609_4 	SentPackets 	0
scalar IntersectionExampleScenario.node[802].nic.mac1609_4 	SNIRLostPackets 	0
scalar IntersectionExampleScenario.node[802].nic.mac1609_4 	RXTXLostPackets 	0
scalar IntersectionExampleScenario.node[802].nic.mac1609_4 	TotalLostPackets 	0
scalar IntersectionExampleScenario.node[802].nic.mac1609_4 	DroppedPacketsInMac 	0
scalar IntersectionExampleScenario.node[802].nic.mac1609_4 	TooLittleTime 	0
scalar IntersectionExampleScenario.node[802].nic.mac1609_4 	TimesIntoBackoff 	0
scalar IntersectionExampleScenario.node[802].nic.mac1609_4 	SlotsBackoff 	0
scalar IntersectionExampleScenario.node[802].nic.mac1609_4 	NumInternalContention 	0
scalar IntersectionExampleScenario.node[802].nic.mac1609_4 	totalBusyTime 	0
scalar IntersectionExampleScenario.node[802].veinsmobility 	startTime 	1776.25
scalar IntersectionExampleScenario.node[802].veinsmobility 	totalTime 	23.75
scalar IntersectionExampleScenario.node[802].veinsmobility 	stopTime 	1800
scalar IntersectionExampleScenario.node[802].veinsmobility 	minSpeed 	0
scalar IntersectionExampleScenario.node[802].veinsmobility 	maxSpeed 	15.868193626404
scalar IntersectionExampleScenario.node[802].veinsmobility 	totalDistance 	287.42190551758
scalar IntersectionExampleScenario.node[802].veinsmobility 	totalCO2Emission 	69.373934356393
scalar IntersectionExampleScenario.node[803].appl 	VehicleRemoved 	0
scalar IntersectionExampleScenario.node[803].appl 	ArrivedAtDest 	0
scalar IntersectionExampleScenario.node[803].appl 	IntersectionEnterTime 	1778.5
scalar IntersectionExampleScenario.node[803].appl 	IntersectionExitTime 	-1
scalar IntersectionExampleScenario.node[803].appl 	NumberOfCollisions 	0
scalar IntersectionExampleScenario.node[803].nic.phy80211p 	busyTime 	0
scalar IntersectionExampleScenario.node[803].nic.mac1609_4 	ReceivedUnicastPackets 	0
scalar IntersectionExampleScenario.node[803].nic.mac1609_4 	ReceivedBroadcasts 	0
scalar IntersectionExampleScenario.node[803].nic.mac1609_4 	SentPackets 	0
scalar IntersectionExampleScenario.node[803].nic.mac1609_4 	SNIRLostPackets 	0
scalar IntersectionExampleScenario.node[803].nic.mac1609_4 	RXTXLostPackets 	0
scalar IntersectionExampleScenario.node[803].nic.mac1609_4 	TotalLostPackets 	0
scalar IntersectionExampleScenario.node[803].nic.mac1609_4 	DroppedPacketsInMac 	0
scalar IntersectionExampleScenario.node[803].nic.mac1609_4 	TooLittleTime 	0
scalar IntersectionExampleScenario.node[803].nic.mac1609_4 	TimesIntoBackoff 	0
scalar IntersectionExampleScenario.node[803].nic.mac1609_4 	SlotsBackoff 	0
scalar IntersectionExampleScenario.node[803].nic.mac1609_4 	NumInternalContention 	0
scalar IntersectionExampleScenario.node[803].nic.mac1609_4 	totalBusyTime 	0
scalar IntersectionExampleScenario.node[803].veinsmobility 	startTime 	1778.5
scalar IntersectionExampleScenario.node[803].veinsmobility 	totalTime 	21.5
scalar IntersectionExampleScenario.node[803].veinsmobility 	stopTime 	1800
scalar IntersectionExampleScenario.node[803].veinsmobility 	minSpeed 	4.5092883110046
scalar IntersectionExampleScenario.node[803].veinsmobility 	maxSpeed 	15.02499961853
scalar IntersectionExampleScenario.node[803].veinsmobility 	totalDistance 	284.61023712158
scalar IntersectionExampleScenario.node[803].veinsmobility 	totalCO2Emission 	63.905127295363
scalar IntersectionExampleScenario.node[804].appl 	VehicleRemoved 	0
scalar IntersectionExampleScenario.node[804].appl 	ArrivedAtDest 	0
scalar IntersectionExampleScenario.node[804].appl 	IntersectionEnterTime 	1784
scalar IntersectionExampleScenario.node[804].appl 	IntersectionExitTime 	-1
scalar IntersectionExampleScenario.node[804].appl 	NumberOfCollisions 	0
scalar IntersectionExampleScenario.node[804].nic.phy80211p 	busyTime 	0
scalar IntersectionExampleScenario.node[804].nic.mac1609_4 	ReceivedUnicastPackets 	0
scalar IntersectionExampleScenario.node[804].nic.mac1609_4 	ReceivedBroadcasts 	0
scalar IntersectionExampleScenario.node[804].nic.mac1609_4 	SentPackets 	0
scalar IntersectionExampleScenario.node[804].nic.mac1609_4 	SNIRLostPackets 	0
scalar IntersectionExampleScenario.node[804].nic.mac1609_4 	RXTXLostPackets 	0
scalar IntersectionExampleScenario.node[804].nic.mac1609_4 	TotalLostPackets 	0
scalar IntersectionExampleScenario.node[804].nic.mac1609_4 	DroppedPacketsInMac 	0
scalar IntersectionExampleScenario.node[804].nic.mac1609_4 	TooLittleTime 	0
scalar IntersectionExampleScenario.node[804].nic.mac1609_4 	TimesIntoBackoff 	0
scalar IntersectionExampleScenario.node[804].nic.mac1609_4 	SlotsBackoff 	0
scalar IntersectionExampleScenario.node[804].nic.mac1609_4 	NumInternalContention 	0
scalar IntersectionExampleScenario.node[804].nic.mac1609_4 	totalBusyTime 	0
scalar IntersectionExampleScenario.node[804].veinsmobility 	startTime 	1784
scalar IntersectionExampleScenario.node[804].veinsmobility 	totalTime 	16
scalar IntersectionExampleScenario.node[804].veinsmobility 	stopTime 	1800
scalar IntersectionExampleScenario.node[804].veinsmobility 	minSpeed 	5.6500000953674
scalar IntersectionExampleScenario.node[804].veinsmobility 	maxSpeed 	15.64999961853
scalar IntersectionExampleScenario.node[804].veinsmobility 	totalDistance 	216.45362091064
scalar IntersectionExampleScenario.node[804].veinsmobility 	totalCO2Emission 	55.549570487749
scalar IntersectionExampleScenario.node[805].appl 	VehicleRemoved 	0
scalar IntersectionExampleScenario.node[805].appl 	ArrivedAtDest 	0
scalar IntersectionExampleScenario.node[805].appl 	IntersectionEnterTime 	1784
scalar IntersectionExampleScenario.node[805].appl 	IntersectionExitTime 	-1
scalar IntersectionExampleScenario.node[805].appl 	NumberOfCollisions 	0
scalar IntersectionExampleScenario.node[805].nic.phy80211p 	busyTime 	0
scalar IntersectionExampleScenario.node[805].nic.mac1609_4 	ReceivedUnicastPackets 	0
scalar IntersectionExampleScenario.node[805].nic.mac1609_4 	ReceivedBroadcasts 	0
scalar IntersectionExampleScenario.node[805].nic.mac1609_4 	SentPackets 	0
scalar IntersectionExampleScenario.node[805].nic.mac1609_4 	SNIRLostPackets 	0
scalar IntersectionExampleScenario.node[805].nic.mac1609_4 	RXTXLostPackets 	0
scalar IntersectionExampleScenario.node[805].nic.mac1609_4 	TotalLostPackets 	0
scalar IntersectionExampleScenario.node[805].nic.mac1609_4 	DroppedPacketsInMac 	0
scalar IntersectionExampleScenario.node[805].nic.mac1609_4 	TooLittleTime 	0
scalar IntersectionExampleScenario.node[805].nic.mac1609_4 	TimesIntoBackoff 	0
scalar IntersectionExampleScenario.node[805].nic.mac1609_4 	SlotsBackoff 	0
scalar IntersectionExampleScenario.node[805].nic.mac1609_4 	NumInternalContention 	0
scalar IntersectionExampleScenario.node[805].nic.mac1609_4 	totalBusyTime 	0
scalar IntersectionExampleScenario.node[805].veinsmobility 	startTime 	1784
scalar IntersectionExampleScenario.node[805].veinsmobility 	totalTime 	16
scalar IntersectionExampleScenario.node[805].veinsmobility 	stopTime 	1800
scalar IntersectionExampleScenario.node[805].veinsmobility 	minSpeed 	5.6500000953674
scalar IntersectionExampleScenario.node[805].veinsmobility 	maxSpeed 	15.836194992065
scalar IntersectionExampleScenario.node[805].veinsmobility 	totalDistance 	227.78259277344
scalar IntersectionExampleScenario.node[805].veinsmobility 	totalCO2Emission 	59.612764244793
scalar IntersectionExampleScenario.node[806].appl 	VehicleRemoved 	0
scalar IntersectionExampleScenario.node[806].appl 	ArrivedAtDest 	0
scalar IntersectionExampleScenario.node[806].appl 	IntersectionEnterTime 	1789.75
scalar IntersectionExampleScenario.node[806].appl 	IntersectionExitTime 	-1
scalar IntersectionExampleScenario.node[806].appl 	NumberOfCollisions 	0
scalar IntersectionExampleScenario.node[806].nic.phy80211p 	busyTime 	0
scalar IntersectionExampleScenario.node[806].nic.mac1609_4 	ReceivedUnicastPackets 	0
scalar IntersectionExampleScenario.node[806].nic.mac1609_4 	ReceivedBroadcasts 	0
scalar IntersectionExampleScenario.node[806].nic.mac1609_4 	SentPackets 	0
scalar IntersectionExampleScenario.node[806].nic.mac1609_4 	SNIRLostPackets 	0
scalar IntersectionExampleScenario.node[806].nic.mac1609_4 	RXTXLostPackets 	0
scalar IntersectionExampleScenario.node[806].nic.mac1609_4 	TotalLostPackets 	0
scalar IntersectionExampleScenario.node[806].nic.mac1609_4 	DroppedPacketsInMac 	0
scalar IntersectionExampleScenario.node[806].nic.mac1609_4 	TooLittleTime 	0
scalar IntersectionExampleScenario.node[806].nic.mac1609_4 	TimesIntoBackoff 	0
scalar IntersectionExampleScenario.node[806].nic.mac1609_4 	SlotsBackoff 	0
scalar IntersectionExampleScenario.node[806].nic.mac1609_4 	NumInternalContention 	0
scalar IntersectionExampleScenario.node[806].nic.mac1609_4 	totalBusyTime 	0
scalar IntersectionExampleScenario.node[806].veinsmobility 	startTime 	1789.75
scalar IntersectionExampleScenario.node[806].veinsmobility 	totalTime 	10.25
scalar IntersectionExampleScenario.node[806].veinsmobility 	stopTime 	1800
scalar IntersectionExampleScenario.node[806].veinsmobility 	minSpeed 	5.6500000953674
scalar IntersectionExampleScenario.node[806].veinsmobility 	maxSpeed 	16.27499961853
scalar IntersectionExampleScenario.node[806].veinsmobility 	totalDistance 	138.77966308594
scalar IntersectionExampleScenario.node[806].veinsmobility 	totalCO2Emission 	47.50553931597
scalar IntersectionExampleScenario.node[807].appl 	VehicleRemoved 	0
scalar IntersectionExampleScenario.node[807].appl 	ArrivedAtDest 	0
scalar IntersectionExampleScenario.node[807].appl 	IntersectionEnterTime 	1798.75
scalar IntersectionExampleScenario.node[807].appl 	IntersectionExitTime 	-1
scalar IntersectionExampleScenario.node[807].appl 	NumberOfCollisions 	0
scalar IntersectionExampleScenario.node[807].nic.phy80211p 	busyTime 	0
scalar IntersectionExampleScenario.node[807].nic.mac1609_4 	ReceivedUnicastPackets 	0
scalar IntersectionExampleScenario.node[807].nic.mac1609_4 	ReceivedBroadcasts 	0
scalar IntersectionExampleScenario.node[807].nic.mac1609_4 	SentPackets 	0
scalar IntersectionExampleScenario.node[807].nic.mac1609_4 	SNIRLostPackets 	0
scalar IntersectionExampleScenario.node[807].nic.mac1609_4 	RXTXLostPackets 	0
scalar IntersectionExampleScenario.node[807].nic.mac1609_4 	TotalLostPackets 	0
scalar IntersectionExampleScenario.node[807].nic.mac1609_4 	DroppedPacketsInMac 	0
scalar IntersectionExampleScenario.node[807].nic.mac1609_4 	TooLittleTime 	0
scalar IntersectionExampleScenario.node[807].nic.mac1609_4 	TimesIntoBackoff 	0
scalar IntersectionExampleScenario.node[807].nic.mac1609_4 	SlotsBackoff 	0
scalar IntersectionExampleScenario.node[807].nic.mac1609_4 	NumInternalContention 	0
scalar IntersectionExampleScenario.node[807].nic.mac1609_4 	totalBusyTime 	0
scalar IntersectionExampleScenario.node[807].veinsmobility 	startTime 	1798.75
scalar IntersectionExampleScenario.node[807].veinsmobility 	totalTime 	1.25
scalar IntersectionExampleScenario.node[807].veinsmobility 	stopTime 	1800
scalar IntersectionExampleScenario.node[807].veinsmobility 	minSpeed 	5.6500000953674
scalar IntersectionExampleScenario.node[807].veinsmobility 	maxSpeed 	8.1499996185303
scalar IntersectionExampleScenario.node[807].veinsmobility 	totalDistance 	8.2343673706055
scalar IntersectionExampleScenario.node[807].veinsmobility 	totalCO2Emission 	5.8390974258108
scalar IntersectionExampleScenario.node[808].appl 	VehicleRemoved 	0
scalar IntersectionExampleScenario.node[808].appl 	ArrivedAtDest 	0
scalar IntersectionExampleScenario.node[808].appl 	IntersectionEnterTime 	1799
scalar IntersectionExampleScenario.node[808].appl 	IntersectionExitTime 	-1
scalar IntersectionExampleScenario.node[808].appl 	NumberOfCollisions 	0
scalar IntersectionExampleScenario.node[808].nic.phy80211p 	busyTime 	0
scalar IntersectionExampleScenario.node[808].nic.mac1609_4 	ReceivedUnicastPackets 	0
scalar IntersectionExampleScenario.node[808].nic.mac1609_4 	ReceivedBroadcasts 	0
scalar IntersectionExampleScenario.node[808].nic.mac1609_4 	SentPackets 	0
scalar IntersectionExampleScenario.node[808].nic.mac1609_4 	SNIRLostPackets 	0
scalar IntersectionExampleScenario.node[808].nic.mac1609_4 	RXTXLostPackets 	0
scalar IntersectionExampleScenario.node[808].nic.mac1609_4 	TotalLostPackets 	0
scalar IntersectionExampleScenario.node[808].nic.mac1609_4 	DroppedPacketsInMac 	0
scalar IntersectionExampleScenario.node[808].nic.mac1609_4 	TooLittleTime 	0
scalar IntersectionExampleScenario.node[808].nic.mac1609_4 	TimesIntoBackoff 	0
scalar IntersectionExampleScenario.node[808].nic.mac1609_4 	SlotsBackoff 	0
scalar IntersectionExampleScenario.node[808].nic.mac1609_4 	NumInternalContention 	0
scalar IntersectionExampleScenario.node[808].nic.mac1609_4 	totalBusyTime 	0
scalar IntersectionExampleScenario.node[808].veinsmobility 	startTime 	1799
scalar IntersectionExampleScenario.node[808].veinsmobility 	totalTime 	1
scalar IntersectionExampleScenario.node[808].veinsmobility 	stopTime 	1800
scalar IntersectionExampleScenario.node[808].veinsmobility 	minSpeed 	5.6500000953674
scalar IntersectionExampleScenario.node[808].veinsmobility 	maxSpeed 	7.5250000953674
scalar IntersectionExampleScenario.node[808].veinsmobility 	totalDistance 	6.2749938964844
scalar IntersectionExampleScenario.node[808].veinsmobility 	totalCO2Emission 	4.2232135025359
