file 29021947 1591462407                                        
version 2
run nodebug-16-20200606-12:49:10-21956
attr configname nodebug
attr datetime 20200606-12:49:10
attr experiment nodebug
attr inifile omnetpp.ini
attr iterationvars ""
attr iterationvars2 $repetition=16
attr measurement ""
attr network "\"org.car2x.veins.modules.application.ExtTraCIScenarioManagerLaunchd.IntersectionExampleScenario\""
attr processid 21956
attr repetition 16
attr replication #16
attr resultdir results
attr runnumber 16
attr seedset 16
param **.coreDebug false
param **.debug false
param *.**.nic.mac1609_4.bitrate 18Mbps
param *.**.nic.mac1609_4.txPower 20mW
param *.**.nic.mac1609_4.useServiceChannel false
param *.**.nic.phy80211p.analogueModels "xmldoc(\"config.xml\")"
param *.**.nic.phy80211p.decider "xmldoc(\"config.xml\")"
param *.**.nic.phy80211p.sensitivity -89dBm
param *.**.nic.phy80211p.thermalNoise -110dBm
param *.**.nic.phy80211p.usePropagationDelay true
param *.**.nic.phy80211p.useThermalNoise true
param *.annotations.draw false
param *.connectionManager.alpha 2.0
param *.connectionManager.carrierFrequency "5.890e9 Hz"
param *.connectionManager.pMax 20mW
param *.connectionManager.sat -89dBm
param *.connectionManager.sendDirect true
param *.manager.autoShutdown true
param *.manager.host "\"localhost\""
param *.manager.launchConfig "xmldoc(\"paramics.launchd.xml\")"
param *.manager.margin 25
param *.manager.moduleDisplayString "\"\""
param *.manager.moduleName "\"node\""
param *.manager.moduleType "\"org.car2x.veins.nodes.Car\""
param *.manager.port 9999
param *.manager.updateInterval 250ms
param *.node[*0].veinsmobility.accidentCount 0
param *.node[*0].veinsmobility.accidentDuration 30s
param *.node[*0].veinsmobility.accidentStart 75s
param *.node[*].appl.LiderSelectZoneRadio 55.0
param *.node[*].appl.ShareDataZoneRadio 110.0
param *.node[*].appl.TiempoSemaforo 30.0
param *.node[*].appl.beaconInterval 1s
param *.node[*].appl.beaconPriority 3
param *.node[*].appl.dataOnSch false
param *.node[*].appl.dataPriority 2
param *.node[*].appl.debug false
param *.node[*].appl.headerLength "256 bit"
param *.node[*].appl.maxOffset 0.005s
param *.node[*].appl.sendBeacons false
param *.node[*].appl.sendData true
param *.node[*].applType "\"Dummy\""
param *.node[*].mobilityType "\"TraCIMobility\""
param *.node[*].mobilityType.debug true
param *.node[*].veinsmobility.x 0
param *.node[*].veinsmobility.y 0
param *.node[*].veinsmobility.z 1.895
param *.node[*].veinsmobilityType "\"org.car2x.veins.modules.mobility.traci.TraCIMobility\""
param *.node[*].veinsmobilityType.debug true
param *.playgroundSizeX 8500m
param *.playgroundSizeY 8500m
param *.playgroundSizeZ 50m
param *.world.use2D false
param *.world.useTorus false

vector 33436  IntersectionExampleScenario.manager  vehiclesinsim  ETV
attr type  int
vector 33437  IntersectionExampleScenario.manager  realtime  ETV
attr type  int
attr unit  s
vector 33440  IntersectionExampleScenario.node[0].veinsmobility  posx  ETV
vector 33441  IntersectionExampleScenario.node[0].veinsmobility  posy  ETV
vector 33442  IntersectionExampleScenario.node[0].veinsmobility  speed  ETV
vector 33443  IntersectionExampleScenario.node[0].veinsmobility  acceleration  ETV
vector 33444  IntersectionExampleScenario.node[0].veinsmobility  co2emission  ETV
vector 33447  IntersectionExampleScenario.node[1].veinsmobility  posx  ETV
vector 33448  IntersectionExampleScenario.node[1].veinsmobility  posy  ETV
vector 33449  IntersectionExampleScenario.node[1].veinsmobility  speed  ETV
vector 33450  IntersectionExampleScenario.node[1].veinsmobility  acceleration  ETV
vector 33451  IntersectionExampleScenario.node[1].veinsmobility  co2emission  ETV
vector 33454  IntersectionExampleScenario.node[2].veinsmobility  posx  ETV
vector 33455  IntersectionExampleScenario.node[2].veinsmobility  posy  ETV
vector 33456  IntersectionExampleScenario.node[2].veinsmobility  speed  ETV
vector 33457  IntersectionExampleScenario.node[2].veinsmobility  acceleration  ETV
vector 33458  IntersectionExampleScenario.node[2].veinsmobility  co2emission  ETV
vector 33461  IntersectionExampleScenario.node[3].veinsmobility  posx  ETV
vector 33462  IntersectionExampleScenario.node[3].veinsmobility  posy  ETV
vector 33463  IntersectionExampleScenario.node[3].veinsmobility  speed  ETV
vector 33468  IntersectionExampleScenario.node[4].veinsmobility  posx  ETV
vector 33469  IntersectionExampleScenario.node[4].veinsmobility  posy  ETV
vector 33464  IntersectionExampleScenario.node[3].veinsmobility  acceleration  ETV
vector 33465  IntersectionExampleScenario.node[3].veinsmobility  co2emission  ETV
vector 33470  IntersectionExampleScenario.node[4].veinsmobility  speed  ETV
vector 33471  IntersectionExampleScenario.node[4].veinsmobility  acceleration  ETV
vector 33472  IntersectionExampleScenario.node[4].veinsmobility  co2emission  ETV
vector 33475  IntersectionExampleScenario.node[5].veinsmobility  posx  ETV
vector 33476  IntersectionExampleScenario.node[5].veinsmobility  posy  ETV
vector 33477  IntersectionExampleScenario.node[5].veinsmobility  speed  ETV
vector 33478  IntersectionExampleScenario.node[5].veinsmobility  acceleration  ETV
vector 33479  IntersectionExampleScenario.node[5].veinsmobility  co2emission  ETV
vector 33482  IntersectionExampleScenario.node[6].veinsmobility  posx  ETV
vector 33483  IntersectionExampleScenario.node[6].veinsmobility  posy  ETV
vector 33484  IntersectionExampleScenario.node[6].veinsmobility  speed  ETV
vector 33485  IntersectionExampleScenario.node[6].veinsmobility  acceleration  ETV
vector 33486  IntersectionExampleScenario.node[6].veinsmobility  co2emission  ETV
vector 33489  IntersectionExampleScenario.node[7].veinsmobility  posx  ETV
vector 33490  IntersectionExampleScenario.node[7].veinsmobility  posy  ETV
vector 33491  IntersectionExampleScenario.node[7].veinsmobility  speed  ETV
vector 33496  IntersectionExampleScenario.node[8].veinsmobility  posx  ETV
vector 33497  IntersectionExampleScenario.node[8].veinsmobility  posy  ETV
vector 33492  IntersectionExampleScenario.node[7].veinsmobility  acceleration  ETV
vector 33493  IntersectionExampleScenario.node[7].veinsmobility  co2emission  ETV
vector 33498  IntersectionExampleScenario.node[8].veinsmobility  speed  ETV
vector 33499  IntersectionExampleScenario.node[8].veinsmobility  acceleration  ETV
vector 33500  IntersectionExampleScenario.node[8].veinsmobility  co2emission  ETV
vector 33503  IntersectionExampleScenario.node[9].veinsmobility  posx  ETV
vector 33504  IntersectionExampleScenario.node[9].veinsmobility  posy  ETV
vector 33505  IntersectionExampleScenario.node[9].veinsmobility  speed  ETV
vector 33506  IntersectionExampleScenario.node[9].veinsmobility  acceleration  ETV
vector 33507  IntersectionExampleScenario.node[9].veinsmobility  co2emission  ETV
vector 33510  IntersectionExampleScenario.node[10].veinsmobility  posx  ETV
vector 33511  IntersectionExampleScenario.node[10].veinsmobility  posy  ETV
vector 33512  IntersectionExampleScenario.node[10].veinsmobility  speed  ETV
vector 33513  IntersectionExampleScenario.node[10].veinsmobility  acceleration  ETV
vector 33514  IntersectionExampleScenario.node[10].veinsmobility  co2emission  ETV
vector 33517  IntersectionExampleScenario.node[11].veinsmobility  posx  ETV
vector 33518  IntersectionExampleScenario.node[11].veinsmobility  posy  ETV
vector 33524  IntersectionExampleScenario.node[12].veinsmobility  posx  ETV
vector 33525  IntersectionExampleScenario.node[12].veinsmobility  posy  ETV
vector 33519  IntersectionExampleScenario.node[11].veinsmobility  speed  ETV
vector 33520  IntersectionExampleScenario.node[11].veinsmobility  acceleration  ETV
vector 33521  IntersectionExampleScenario.node[11].veinsmobility  co2emission  ETV
vector 33526  IntersectionExampleScenario.node[12].veinsmobility  speed  ETV
vector 33527  IntersectionExampleScenario.node[12].veinsmobility  acceleration  ETV
vector 33528  IntersectionExampleScenario.node[12].veinsmobility  co2emission  ETV
vector 33531  IntersectionExampleScenario.node[13].veinsmobility  posx  ETV
vector 33532  IntersectionExampleScenario.node[13].veinsmobility  posy  ETV
vector 33533  IntersectionExampleScenario.node[13].veinsmobility  speed  ETV
vector 33534  IntersectionExampleScenario.node[13].veinsmobility  acceleration  ETV
vector 33535  IntersectionExampleScenario.node[13].veinsmobility  co2emission  ETV
vector 33538  IntersectionExampleScenario.node[14].veinsmobility  posx  ETV
vector 33539  IntersectionExampleScenario.node[14].veinsmobility  posy  ETV
vector 33540  IntersectionExampleScenario.node[14].veinsmobility  speed  ETV
vector 33541  IntersectionExampleScenario.node[14].veinsmobility  acceleration  ETV
vector 33542  IntersectionExampleScenario.node[14].veinsmobility  co2emission  ETV
vector 33545  IntersectionExampleScenario.node[15].veinsmobility  posx  ETV
vector 33546  IntersectionExampleScenario.node[15].veinsmobility  posy  ETV
vector 33547  IntersectionExampleScenario.node[15].veinsmobility  speed  ETV
vector 33548  IntersectionExampleScenario.node[15].veinsmobility  acceleration  ETV
vector 33549  IntersectionExampleScenario.node[15].veinsmobility  co2emission  ETV
vector 33552  IntersectionExampleScenario.node[16].veinsmobility  posx  ETV
vector 33553  IntersectionExampleScenario.node[16].veinsmobility  posy  ETV
vector 33554  IntersectionExampleScenario.node[16].veinsmobility  speed  ETV
vector 33555  IntersectionExampleScenario.node[16].veinsmobility  acceleration  ETV
vector 33556  IntersectionExampleScenario.node[16].veinsmobility  co2emission  ETV
vector 33559  IntersectionExampleScenario.node[17].veinsmobility  posx  ETV
vector 33560  IntersectionExampleScenario.node[17].veinsmobility  posy  ETV
vector 33561  IntersectionExampleScenario.node[17].veinsmobility  speed  ETV
vector 33562  IntersectionExampleScenario.node[17].veinsmobility  acceleration  ETV
vector 33563  IntersectionExampleScenario.node[17].veinsmobility  co2emission  ETV
vector 33566  IntersectionExampleScenario.node[18].veinsmobility  posx  ETV
vector 33567  IntersectionExampleScenario.node[18].veinsmobility  posy  ETV
33444	10258 5000 16 2998 2.75 42 158 0.973 11.200708441096 458.21083736787 2208.253032665
33443	15258 4490 16 2998 2.75 42 158 -3.2722854614258 2.5 36.304327011108 174.96345292058
33442	19748 4898 13 2998 2.5 42 159 5.6500000953674 15.02499961853 2215.7802724838 31407.449807846
33441	24646 5150 10 2998 2.25 42 160 486.85000610352 486.85000610352 77896.000976562 37923668.550879
33440	29796 5135 10 2998 2.25 42 160 236.87274169922 785.82187652588 83322.251441956 47631294.12294
vector 33573  IntersectionExampleScenario.node[19].veinsmobility  posx  ETV
vector 33574  IntersectionExampleScenario.node[19].veinsmobility  posy  ETV
vector 33568  IntersectionExampleScenario.node[18].veinsmobility  speed  ETV
vector 33569  IntersectionExampleScenario.node[18].veinsmobility  acceleration  ETV
vector 33570  IntersectionExampleScenario.node[18].veinsmobility  co2emission  ETV
vector 33575  IntersectionExampleScenario.node[19].veinsmobility  speed  ETV
vector 33576  IntersectionExampleScenario.node[19].veinsmobility  acceleration  ETV
vector 33577  IntersectionExampleScenario.node[19].veinsmobility  co2emission  ETV
vector 33580  IntersectionExampleScenario.node[20].veinsmobility  posx  ETV
vector 33581  IntersectionExampleScenario.node[20].veinsmobility  posy  ETV
vector 33582  IntersectionExampleScenario.node[20].veinsmobility  speed  ETV
vector 33583  IntersectionExampleScenario.node[20].veinsmobility  acceleration  ETV
vector 33584  IntersectionExampleScenario.node[20].veinsmobility  co2emission  ETV
33465	35980 5046 106 3596 6.75 46.75 161 0.973 11.810082123732 511.10618218493 2768.3094608912
33464	41026 4641 106 3596 6.75 46.75 161 -3.3824043273926 2.5 38.511121749878 275.54518491085
33463	45667 4945 97 3596 6.5 46.75 162 5.6500000953674 15.875 2212.3987474442 31569.09153431
33462	50612 5292 88 3596 6.25 46.75 163 486.85000610352 734.13764953613 87574.643951416 47988415.344748
33461	55904 5285 88 3596 6.25 46.75 163 486.85000610352 792.02188110352 93714.705291748 55716662.901469
vector 33587  IntersectionExampleScenario.node[21].veinsmobility  posx  ETV
vector 33588  IntersectionExampleScenario.node[21].veinsmobility  posy  ETV
vector 33589  IntersectionExampleScenario.node[21].veinsmobility  speed  ETV
vector 33590  IntersectionExampleScenario.node[21].veinsmobility  acceleration  ETV
vector 33591  IntersectionExampleScenario.node[21].veinsmobility  co2emission  ETV
vector 33594  IntersectionExampleScenario.node[22].veinsmobility  posx  ETV
vector 33595  IntersectionExampleScenario.node[22].veinsmobility  posy  ETV
vector 33601  IntersectionExampleScenario.node[23].veinsmobility  posx  ETV
vector 33602  IntersectionExampleScenario.node[23].veinsmobility  posy  ETV
vector 33596  IntersectionExampleScenario.node[22].veinsmobility  speed  ETV
vector 33597  IntersectionExampleScenario.node[22].veinsmobility  acceleration  ETV
vector 33598  IntersectionExampleScenario.node[22].veinsmobility  co2emission  ETV
vector 33603  IntersectionExampleScenario.node[23].veinsmobility  speed  ETV
vector 33604  IntersectionExampleScenario.node[23].veinsmobility  acceleration  ETV
vector 33605  IntersectionExampleScenario.node[23].veinsmobility  co2emission  ETV
33458	62392 5748 60 4358 5.25 52.5 190 0.973 11.450879080643 551.02436947008 2806.9067803342
33457	68140 5319 60 4358 5.25 52.5 190 -6.771110534668 4 36.98334312439 456.08187023827
33456	73459 5663 53 4358 5 52.5 191 0 15.375 2209.3351578712 30725.483349737
33455	79122 6207 46 4358 4.75 52.5 192 184.17810058594 732.67367553711 86882.547714233 43526012.560845
33454	85329 6236 46 4358 4.75 52.5 192 486.85000610352 486.85000610352 93475.201171875 45508402.261055
vector 33608  IntersectionExampleScenario.node[24].veinsmobility  posx  ETV
vector 33609  IntersectionExampleScenario.node[24].veinsmobility  posy  ETV
vector 33615  IntersectionExampleScenario.node[25].veinsmobility  posx  ETV
vector 33616  IntersectionExampleScenario.node[25].veinsmobility  posy  ETV
vector 33610  IntersectionExampleScenario.node[24].veinsmobility  speed  ETV
vector 33611  IntersectionExampleScenario.node[24].veinsmobility  acceleration  ETV
vector 33612  IntersectionExampleScenario.node[24].veinsmobility  co2emission  ETV
vector 33617  IntersectionExampleScenario.node[25].veinsmobility  speed  ETV
vector 33618  IntersectionExampleScenario.node[25].veinsmobility  acceleration  ETV
vector 33619  IntersectionExampleScenario.node[25].veinsmobility  co2emission  ETV
33472	92367 6089 128 4905 7.25 56.5 198 0.973 10.756497587458 525.764829884 2388.8681251189
33471	98456 5959 128 4905 7.25 56.5 198 -4.5 2.5 32.739515304565 348.10410674779
33470	104415 6372 117 4905 7 56.5 199 0.2858430147171 14.39999961853 2288.2006123066 29560.474740386
33469	110787 6471 106 4905 6.75 56.5 200 166.078125 734.09451293945 88929.991989136 44454396.325205
33468	117258 6524 106 4905 6.75 56.5 200 486.85000610352 486.85000610352 97370.001220703 47404585.688598
vector 33622  IntersectionExampleScenario.node[26].veinsmobility  posx  ETV
vector 33623  IntersectionExampleScenario.node[26].veinsmobility  posy  ETV
vector 33624  IntersectionExampleScenario.node[26].veinsmobility  speed  ETV
vector 33625  IntersectionExampleScenario.node[26].veinsmobility  acceleration  ETV
vector 33626  IntersectionExampleScenario.node[26].veinsmobility  co2emission  ETV
33486	124183 5178 535 5027 15.5 57.5 169 0.93438186594183 12.26218747632 574.74170458177 3318.0494395845
33485	129361 5023 535 5027 15.5 57.5 169 -3.376277923584 2.5 41.057416915894 354.23895038667
33484	134384 5249 520 5027 15.25 57.5 170 5.6500000953674 16.5 2188.7290344238 30046.783426918
33483	139633 5580 505 5027 15 57.5 171 184.17810058594 483.14999389648 68010.928192139 28791746.901708
33482	145213 5604 505 5027 15 57.5 171 486.85000610352 734.61767578125 91192.320785522 49569848.044785
vector 33629  IntersectionExampleScenario.node[27].veinsmobility  posx  ETV
vector 33630  IntersectionExampleScenario.node[27].veinsmobility  posy  ETV
vector 33636  IntersectionExampleScenario.node[28].veinsmobility  posx  ETV
vector 33637  IntersectionExampleScenario.node[28].veinsmobility  posy  ETV
vector 33631  IntersectionExampleScenario.node[27].veinsmobility  speed  ETV
vector 33632  IntersectionExampleScenario.node[27].veinsmobility  acceleration  ETV
vector 33633  IntersectionExampleScenario.node[27].veinsmobility  co2emission  ETV
vector 33638  IntersectionExampleScenario.node[28].veinsmobility  speed  ETV
vector 33639  IntersectionExampleScenario.node[28].veinsmobility  acceleration  ETV
vector 33640  IntersectionExampleScenario.node[28].veinsmobility  co2emission  ETV
33451	151619 6597 41 5547 4.5 61.75 230 0.96333723109819 12.099024792222 616.5447790223 3255.948473436
33450	158216 6135 41 5547 4.5 61.75 230 -6.7176246643066 4 40.208654403687 485.26706844698
33449	164351 6322 36 5547 4.25 61.75 231 0 16.27499961853 2208.9459319115 32116.439878733
33448	170673 7529 31 5547 4 61.75 232 237.77221679688 785.82187652588 119338.74452972 65444228.99924
33447	178202 7547 31 5547 4 61.75 232 483.14999389648 483.14999389648 112090.79858398 54156668.651704
vector 33643  IntersectionExampleScenario.node[29].veinsmobility  posx  ETV
vector 33644  IntersectionExampleScenario.node[29].veinsmobility  posy  ETV
vector 33645  IntersectionExampleScenario.node[29].veinsmobility  speed  ETV
vector 33646  IntersectionExampleScenario.node[29].veinsmobility  acceleration  ETV
vector 33647  IntersectionExampleScenario.node[29].veinsmobility  co2emission  ETV
vector 33650  IntersectionExampleScenario.node[30].veinsmobility  posx  ETV
vector 33651  IntersectionExampleScenario.node[30].veinsmobility  posy  ETV
vector 33652  IntersectionExampleScenario.node[30].veinsmobility  speed  ETV
vector 33653  IntersectionExampleScenario.node[30].veinsmobility  acceleration  ETV
vector 33654  IntersectionExampleScenario.node[30].veinsmobility  co2emission  ETV
33479	186551 6446 297 5921 11 64.75 216 0.973 11.648172402475 573.84415134826 2916.318538017
33478	192997 6836 297 5921 11 64.75 216 -3.8966188430786 2.5000009536743 38.171613693237 340.53261813938
33477	199833 6927 284 5921 10.75 64.75 217 0 15.64999961853 2216.0428703036 29822.082556505
33476	206760 7123 271 5921 10.5 64.75 218 236.51995849609 785.82187652588 113138.65291595 62883374.387683
33475	213883 7147 271 5921 10.5 64.75 218 483.14999389648 483.14999389648 105326.69866943 50888593.819274
vector 33657  IntersectionExampleScenario.node[31].veinsmobility  posx  ETV
vector 33658  IntersectionExampleScenario.node[31].veinsmobility  posy  ETV
vector 33659  IntersectionExampleScenario.node[31].veinsmobility  speed  ETV
vector 33660  IntersectionExampleScenario.node[31].veinsmobility  acceleration  ETV
vector 33661  IntersectionExampleScenario.node[31].veinsmobility  co2emission  ETV
vector 33664  IntersectionExampleScenario.node[32].veinsmobility  posx  ETV
vector 33665  IntersectionExampleScenario.node[32].veinsmobility  posy  ETV
vector 33666  IntersectionExampleScenario.node[32].veinsmobility  speed  ETV
vector 33667  IntersectionExampleScenario.node[32].veinsmobility  acceleration  ETV
vector 33668  IntersectionExampleScenario.node[32].veinsmobility  co2emission  ETV
vector 33671  IntersectionExampleScenario.node[33].veinsmobility  posx  ETV
vector 33672  IntersectionExampleScenario.node[33].veinsmobility  posy  ETV
vector 33678  IntersectionExampleScenario.node[34].veinsmobility  posx  ETV
vector 33679  IntersectionExampleScenario.node[34].veinsmobility  posy  ETV
vector 33673  IntersectionExampleScenario.node[33].veinsmobility  speed  ETV
vector 33674  IntersectionExampleScenario.node[33].veinsmobility  acceleration  ETV
vector 33675  IntersectionExampleScenario.node[33].veinsmobility  co2emission  ETV
vector 33680  IntersectionExampleScenario.node[34].veinsmobility  speed  ETV
vector 33681  IntersectionExampleScenario.node[34].veinsmobility  acceleration  ETV
vector 33682  IntersectionExampleScenario.node[34].veinsmobility  co2emission  ETV
33535	222634 5042 1733 6645 30.5 70 159 0.97223939240464 11.810082123732 522.41600972189 3074.1850048019
33534	227676 4900 1733 6645 30.5 70 159 -3.7936038970947 2.5 38.680875778198 314.47290450219
33533	232576 4955 1708 6645 30.25 70 160 5.6500000953674 15.875 2190.3010668755 31342.550246629
33532	237531 5303 1682 6645 30 70 161 486.85000610352 785.82187652588 92169.315620422 54504623.348352
33531	242834 5307 1682 6645 30 70 161 235.24176025391 483.14999389648 69548.279449463 30979904.064705
33493	248141 6259 794 6867 19.75 71.5 208 0.973 11.36141391502 566.59198256408 2783.7754407943
33492	254400 5675 794 6867 19.75 71.5 208 -8.4870233535767 4 37.15309715271 476.36027920365
33491	260075 6023 777 6867 19.5 71.5 209 0 15.25 2176.74477458 30094.703439055
33490	266098 6853 760 6867 19.25 71.5 210 236.84155273438 483.14999389648 93124.160400391 42330487.067257
33489	272951 6899 760 6867 19.25 71.5 210 184.17810058594 483.36395263672 86883.192504883 37901303.943842
33500	279850 6279 832 6904 20.25 71.75 207 0.973 11.990504229548 605.4151362711 3104.4135154014
33499	286129 5758 832 6904 20.25 71.75 207 -4.5 2.5 40.717908859253 501.71921835083
33498	291887 6089 813 6904 20 71.75 208 0 16.125 2314.076610446 33334.651136822
33497	297976 6887 794 6904 19.75 71.75 209 483.14999389648 483.14999389648 100978.34872437 48787688.569854
33496	304863 6728 794 6904 19.75 71.75 209 160.43438720703 733.6962890625 92231.828109741 45391797.808345
33507	311591 5976 1140 6978 24.25 72.25 193 0.973 11.200708441096 552.16895110026 2690.3523795154
33506	317567 5661 1140 6978 24.25 72.25 193 -6.7711477279663 4 36.98334312439 437.01330181537
33505	323228 6027 1119 6978 24 72.25 194 0 15.144445419312 2206.6595575809 30330.26288754
33504	329255 6435 1098 6978 23.75 72.25 195 486.85000610352 486.85000610352 94935.751190186 46219471.046384
33503	335690 6415 1098 6978 23.75 72.25 195 238.28228759766 785.82187652588 100830.02719879 56334534.804972
33521	342105 5732 1407 7089 27.25 73 184 0.973 11.36141391502 551.26753237421 2796.6242643354
33520	347837 5307 1407 7089 27.25 73 184 -4.5 2.5 38.171613693237 427.90723000794
33519	353144 5681 1382 7089 27 73 185 0 15.25 2236.4469671845 30867.676055199
33518	358825 6133 1359 7089 26.75 73 186 486.85000610352 733.56446838379 98796.706954956 53462666.091989
33517	364958 6127 1359 7089 26.75 73 186 486.85000610352 798.59687805176 106006.22027588 62445832.052238
33514	371085 6085 1207 7311 25 74.5 199 0.973 11.648172402475 565.28827488074 2912.3610080198
33513	377170 6295 1207 7311 25 74.5 199 -3.949499130249 2.5 38.341367721558 357.11266171184
33512	383465 6428 1184 7311 24.75 74.5 200 0 15.64999961853 2275.1120167747 31106.183738998
33511	389893 6633 1161 7311 24.5 74.5 201 483.14999389648 483.14999389648 97113.148773193 46920217.237037
33510	396526 6608 1161 7311 24.5 74.5 201 169.61462402344 733.59201049805 89190.045730591 44060429.522008
vector 33685  IntersectionExampleScenario.node[35].veinsmobility  posx  ETV
vector 33686  IntersectionExampleScenario.node[35].veinsmobility  posy  ETV
vector 33687  IntersectionExampleScenario.node[35].veinsmobility  speed  ETV
vector 33688  IntersectionExampleScenario.node[35].veinsmobility  acceleration  ETV
vector 33689  IntersectionExampleScenario.node[35].veinsmobility  co2emission  ETV
33528	403535 6075 1432 7580 27.5 76.25 196 0.973 11.648172402475 580.68596098834 2958.3970698812
33527	409610 5927 1432 7580 27.5 76.25 196 -4.5 2.5 39.699392318726 364.06056228896
33526	415537 6315 1407 7580 27.25 76.25 197 3.0970132350922 15.64999961853 2313.6540400982 31331.518933758
33525	421852 6533 1382 7580 27 76.25 198 483.14999389648 483.14999389648 95663.698791504 46219915.48723
33524	428385 6511 1382 7580 27 76.25 198 161.30261230469 734.38436889648 86412.174865723 42345997.712766
vector 33692  IntersectionExampleScenario.node[36].veinsmobility  posx  ETV
vector 33693  IntersectionExampleScenario.node[36].veinsmobility  posy  ETV
vector 33694  IntersectionExampleScenario.node[36].veinsmobility  speed  ETV
vector 33695  IntersectionExampleScenario.node[36].veinsmobility  acceleration  ETV
vector 33696  IntersectionExampleScenario.node[36].veinsmobility  co2emission  ETV
33542	435297 5620 1937 7985 32.5 78.75 186 0.93438186594183 12.26218747632 578.84683338825 3313.7122358697
33541	440917 5711 1937 7985 32.5 78.75 186 -4.5 2.5 41.057416915894 381.43852092273
33540	446628 5820 1910 7985 32.25 78.75 187 2.9162645339966 16.5 2219.8788106441 30091.535095236
33539	452448 6200 1883 7985 32 78.75 188 238.39074707031 483.14999389648 83070.946624756 37646263.94958
33538	458648 6172 1883 7985 32 78.75 188 174.20471191406 483.14999389648 74980.543518066 31806904.115896
vector 33699  IntersectionExampleScenario.node[37].veinsmobility  posx  ETV
vector 33700  IntersectionExampleScenario.node[37].veinsmobility  posy  ETV
vector 33701  IntersectionExampleScenario.node[37].veinsmobility  speed  ETV
33563	465052 5220 2800 8323 40.25 81 164 0.973 11.200708441096 498.78874756587 2521.075104822
33562	470272 5013 2800 8323 40.25 81 164 -3.4813346862793 2.5 37.32285118103 244.36859572805
33561	475285 5411 2771 8323 40 81 165 5.6500000953674 15.195284843445 2210.7935557365 30889.609088104
33560	480696 5470 2742 8323 39.75 81 166 235.88214111328 486.85000610352 72119.190063477 32318926.426066
33559	486166 5470 2742 8323 39.75 81 166 483.12002563477 785.82187652588 94497.821983337 55622793.984176
vector 33702  IntersectionExampleScenario.node[37].veinsmobility  acceleration  ETV
vector 33703  IntersectionExampleScenario.node[37].veinsmobility  co2emission  ETV
33577	491805 5185 3089 8626 42.75 83 162 0.973 11.810082123732 541.80258964387 3018.8056705486
33576	496990 4743 3089 8626 42.75 83 162 -4.7108612060547 2.5 39.699392318726 340.37003778728
33575	501733 5056 3058 8626 42.5 83 163 5.6500000953674 15.875 2250.9681520462 32522.95869147
33574	506789 5399 3027 8626 42.25 83 164 486.85000610352 734.1082611084 87922.597946167 48065188.023571
33573	512188 5399 3027 8626 42.25 83 164 486.80319213867 801.41563415527 94904.554695129 56888965.21168
vector 33706  IntersectionExampleScenario.node[38].veinsmobility  posx  ETV
vector 33707  IntersectionExampleScenario.node[38].veinsmobility  posy  ETV
vector 33713  IntersectionExampleScenario.node[39].veinsmobility  posx  ETV
vector 33714  IntersectionExampleScenario.node[39].veinsmobility  posy  ETV
vector 33708  IntersectionExampleScenario.node[38].veinsmobility  speed  ETV
vector 33720  IntersectionExampleScenario.node[40].veinsmobility  posx  ETV
vector 33721  IntersectionExampleScenario.node[40].veinsmobility  posy  ETV
vector 33709  IntersectionExampleScenario.node[38].veinsmobility  acceleration  ETV
vector 33710  IntersectionExampleScenario.node[38].veinsmobility  co2emission  ETV
vector 33715  IntersectionExampleScenario.node[39].veinsmobility  speed  ETV
vector 33716  IntersectionExampleScenario.node[39].veinsmobility  acceleration  ETV
vector 33717  IntersectionExampleScenario.node[39].veinsmobility  co2emission  ETV
vector 33722  IntersectionExampleScenario.node[40].veinsmobility  speed  ETV
vector 33723  IntersectionExampleScenario.node[40].veinsmobility  acceleration  ETV
vector 33724  IntersectionExampleScenario.node[40].veinsmobility  co2emission  ETV
vector 33727  IntersectionExampleScenario.node[41].veinsmobility  posx  ETV
vector 33728  IntersectionExampleScenario.node[41].veinsmobility  posy  ETV
vector 33734  IntersectionExampleScenario.node[42].veinsmobility  posx  ETV
vector 33735  IntersectionExampleScenario.node[42].veinsmobility  posy  ETV
vector 33729  IntersectionExampleScenario.node[41].veinsmobility  speed  ETV
vector 33736  IntersectionExampleScenario.node[42].veinsmobility  speed  ETV
vector 33730  IntersectionExampleScenario.node[41].veinsmobility  acceleration  ETV
vector 33731  IntersectionExampleScenario.node[41].veinsmobility  co2emission  ETV
vector 33737  IntersectionExampleScenario.node[42].veinsmobility  acceleration  ETV
vector 33738  IntersectionExampleScenario.node[42].veinsmobility  co2emission  ETV
vector 33741  IntersectionExampleScenario.node[43].veinsmobility  posx  ETV
vector 33742  IntersectionExampleScenario.node[43].veinsmobility  posy  ETV
vector 33743  IntersectionExampleScenario.node[43].veinsmobility  speed  ETV
vector 33744  IntersectionExampleScenario.node[43].veinsmobility  acceleration  ETV
vector 33745  IntersectionExampleScenario.node[43].veinsmobility  co2emission  ETV
vector 33748  IntersectionExampleScenario.node[44].veinsmobility  posx  ETV
vector 33749  IntersectionExampleScenario.node[44].veinsmobility  posy  ETV
33549	520147 6847 2319 10466 36 94.25 234 0.973 11.648172402475 606.40484787607 3025.1961803713
33548	526994 6404 2319 10466 36 94.25 234 -9.1365737915039 4 38.341367721558 517.08578091442
33547	533398 6556 2290 10466 35.75 94.25 235 0 15.64999961853 2211.2697279453 31443.983470686
33546	539954 7784 2261 10466 35.5 94.25 236 236.58178710938 785.82187652588 121218.62801361 66432870.497964
33545	547738 7801 2261 10466 35.5 94.25 236 483.14999389648 483.14999389648 114023.39855957 55090404.318113
vector 33750  IntersectionExampleScenario.node[44].veinsmobility  speed  ETV
vector 33755  IntersectionExampleScenario.node[45].veinsmobility  posx  ETV
vector 33756  IntersectionExampleScenario.node[45].veinsmobility  posy  ETV
vector 33751  IntersectionExampleScenario.node[44].veinsmobility  acceleration  ETV
vector 33752  IntersectionExampleScenario.node[44].veinsmobility  co2emission  ETV
vector 33762  IntersectionExampleScenario.node[46].veinsmobility  posx  ETV
vector 33763  IntersectionExampleScenario.node[46].veinsmobility  posy  ETV
vector 33757  IntersectionExampleScenario.node[45].veinsmobility  speed  ETV
vector 33758  IntersectionExampleScenario.node[45].veinsmobility  acceleration  ETV
vector 33759  IntersectionExampleScenario.node[45].veinsmobility  co2emission  ETV
vector 33764  IntersectionExampleScenario.node[46].veinsmobility  speed  ETV
33556	556419 7208 2515 10620 37.75 95.25 231 0.973 11.810082123732 628.02450442317 3150.3968730934
33555	563627 7040 2515 10620 37.75 95.25 231 -4.5 2.5 40.887662887573 457.73364178583
33554	570667 7177 2486 10620 37.5 95.25 232 0 15.930662155151 2263.613378779 32409.683889037
33553	577844 7690 2457 10620 37.25 95.25 233 486.85000610352 805.05782318115 129973.02706909 74778397.602711
33552	585534 7695 2457 10620 37.25 95.25 233 236.6171875 483.14999389648 104680.0597229 48053871.548046
vector 33765  IntersectionExampleScenario.node[46].veinsmobility  acceleration  ETV
vector 33766  IntersectionExampleScenario.node[46].veinsmobility  co2emission  ETV
33570	593398 6714 3058 10989 42.5 97.5 221 0.973 12.099024792222 608.19216454343 3236.1202782616
33569	600112 6937 3058 10989 42.5 97.5 221 -3.7830221652985 2.5000002384186 40.887662887573 381.58216829861
33568	607049 7028 3027 10989 42.25 97.5 222 0 16.27499961853 2245.9219719395 31004.854689909
33567	614077 7364 2998 10989 42 97.5 223 483.14999389648 795.92292785645 124746.47616577 71836366.220112
33566	621441 7380 2998 10989 42 97.5 223 483.14999389648 732.51811218262 115794.16067505 61171926.00217
vector 33769  IntersectionExampleScenario.node[47].veinsmobility  posx  ETV
vector 33770  IntersectionExampleScenario.node[47].veinsmobility  posy  ETV
vector 33776  IntersectionExampleScenario.node[48].veinsmobility  posx  ETV
vector 33777  IntersectionExampleScenario.node[48].veinsmobility  posy  ETV
vector 33771  IntersectionExampleScenario.node[47].veinsmobility  speed  ETV
vector 33772  IntersectionExampleScenario.node[47].veinsmobility  acceleration  ETV
vector 33773  IntersectionExampleScenario.node[47].veinsmobility  co2emission  ETV
vector 33778  IntersectionExampleScenario.node[48].veinsmobility  speed  ETV
vector 33779  IntersectionExampleScenario.node[48].veinsmobility  acceleration  ETV
vector 33780  IntersectionExampleScenario.node[48].veinsmobility  co2emission  ETV
33591	629623 6509 3693 11625 47.5 101.25 216 0.973 11.200708441096 547.7661563028 2593.8654095271
33590	636132 6729 3693 11625 47.5 101.25 216 -3.9057438373566 2.5 35.795072555542 318.26561528497
33589	642861 6920 3660 11625 47.25 101.25 217 0 15.02499961853 2211.8935906589 27964.887168266
33588	649781 7224 3627 11625 47 101.25 218 483.14199829102 785.82187652588 122382.26552582 70603815.752846
33587	657005 7239 3627 11625 47 101.25 218 483.14999389648 734.42317199707 114169.62339783 60915357.773378
vector 33783  IntersectionExampleScenario.node[49].veinsmobility  posx  ETV
vector 33784  IntersectionExampleScenario.node[49].veinsmobility  posy  ETV
vector 33785  IntersectionExampleScenario.node[49].veinsmobility  speed  ETV
vector 33786  IntersectionExampleScenario.node[49].veinsmobility  acceleration  ETV
vector 33787  IntersectionExampleScenario.node[49].veinsmobility  co2emission  ETV
33584	664645 6897 3434 11968 45.5 103.25 232 0.973 11.450879080643 595.12442201048 2846.5876968217
33583	671542 6291 3434 11968 45.5 103.25 232 -26.214740753174 4 37.15309715271 1082.1142969133
33582	677833 6500 3401 11968 45.25 103.25 233 0 15.375 2183.7326393127 30717.605027671
33581	684333 7779 3368 11968 45 103.25 234 483.14999389648 733.74011230469 121651.24281311 64365153.849906
33580	692112 7763 3368 11968 45 103.25 234 184.17810058594 486.85000610352 98485.839538574 43512777.869444
vector 33790  IntersectionExampleScenario.node[50].veinsmobility  posx  ETV
vector 33791  IntersectionExampleScenario.node[50].veinsmobility  posy  ETV
vector 33792  IntersectionExampleScenario.node[50].veinsmobility  speed  ETV
33605	700107 6617 4148 12135 51 104.25 214 0.973 11.200708441096 576.18120304961 2751.719440371
33604	706724 6711 4148 12135 51 104.25 214 -3.9043169021606 2.5000000596046 38.341367721558 352.25250249295
33603	713435 7032 4113 12135 50.75 104.25 215 0 15.299760818481 2212.5342111625 30105.32035867
33602	720467 7199 4078 12135 50.5 104.25 216 483.14999389648 483.14999389648 104360.39868164 50421725.986069
33601	727666 7166 4078 12135 50.5 104.25 216 184.17810058594 732.5330657959 97424.429794312 48083094.818213
vector 33793  IntersectionExampleScenario.node[50].veinsmobility  acceleration  ETV
vector 33794  IntersectionExampleScenario.node[50].veinsmobility  co2emission  ETV
33598	735001 6648 4113 12436 50.75 106 222 0.973 11.648172402475 591.64784072277 2955.6769071551
33597	741649 6176 4113 12436 50.75 106 222 -9.0268411636353 4 38.341367721558 527.43932148217
33596	747825 6360 4078 12436 50.5 106 223 0 15.64999961853 2173.7559840679 30636.947997718
33595	754185 7471 4045 12436 50.25 106 224 486.85000610352 731.78132629395 117150.89225769 62294574.550027
33594	761656 7468 4045 12436 50.25 106 224 486.75677490234 785.82187652588 123618.08605194 70207677.716058
33626	769124 6031 4996 12562 57.25 106.75 199 0.973 11.810082123732 569.74236393467 3072.204460849
33625	775155 6147 4996 12562 57.25 106.75 199 -2.4993057250977 2.5 39.699392318726 339.50084936835
33624	781302 6370 4965 12562 57 106.75 200 1.8376870155334 15.875 2188.0591644049 28522.867421153
33623	787672 6711 4934 12562 56.75 106.75 201 235.9951171875 483.14999389648 89043.314910889 40447374.819554
33622	794383 6695 4934 12562 56.75 106.75 201 184.17810058594 483.14999389648 81451.237884521 34808409.623464
33612	801078 6569 4667 12562 54.75 106.75 209 0.973 11.990504229548 590.74434647015 3094.0936035377
33611	807647 6533 4667 12562 54.75 106.75 209 -4.5 2.5 39.869146347046 420.11940078736
33610	814180 6847 4631 12562 54.5 106.75 210 0 16.125 2244.4286764115 31982.897586315
33609	821027 7056 4596 12562 54.25 106.75 211 486.85000610352 486.85000610352 102725.35128784 50011837.901471
33608	828083 7036 4596 12562 54.25 106.75 211 235.68206787109 792.02188110352 109727.01126862 61304812.482453
vector 33797  IntersectionExampleScenario.node[51].veinsmobility  posx  ETV
vector 33798  IntersectionExampleScenario.node[51].veinsmobility  posy  ETV
vector 33799  IntersectionExampleScenario.node[51].veinsmobility  speed  ETV
vector 33800  IntersectionExampleScenario.node[51].veinsmobility  acceleration  ETV
vector 33801  IntersectionExampleScenario.node[51].veinsmobility  co2emission  ETV
33668	835520 5379 6152 12987 66.5 109.25 172 0.973 12.099024792222 549.38685698069 3218.8110512522
33667	840899 5332 6152 12987 66.5 109.25 172 -3.3146896362305 2.5 40.038900375366 311.39666051622
33666	846231 5528 6117 12987 66.25 109.25 173 5.2352294921875 16.27499961853 2217.1469097137 30511.257957797
33665	851759 5836 6082 12987 66 109.25 174 235.15539550781 486.85000610352 76408.974578857 34548485.373052
33664	857595 5819 6082 12987 66 109.25 174 483.14999389648 785.82187652588 98975.818305969 58073681.601561
vector 33804  IntersectionExampleScenario.node[52].veinsmobility  posx  ETV
vector 33805  IntersectionExampleScenario.node[52].veinsmobility  posy  ETV
vector 33806  IntersectionExampleScenario.node[52].veinsmobility  speed  ETV
vector 33807  IntersectionExampleScenario.node[52].veinsmobility  acceleration  ETV
vector 33808  IntersectionExampleScenario.node[52].veinsmobility  co2emission  ETV
vector 33811  IntersectionExampleScenario.node[53].veinsmobility  posx  ETV
vector 33812  IntersectionExampleScenario.node[53].veinsmobility  posy  ETV
vector 33813  IntersectionExampleScenario.node[53].veinsmobility  speed  ETV
vector 33814  IntersectionExampleScenario.node[53].veinsmobility  acceleration  ETV
vector 33815  IntersectionExampleScenario.node[53].veinsmobility  co2emission  ETV
33619	864216 7428 4702 14232 55 117 249 0.973 11.200708441096 599.64846116523 2701.8560941317
33618	871644 6517 4702 14232 55 117 249 -7.2851285934448 4 35.795072555542 500.59721407114
33617	878161 7022 4667 14232 54.75 117 250 0 15.02499961853 2187.2982456684 29842.421742026
33616	885183 8433 4631 14232 54.5 117 251 184.17810058594 483.36395263672 106098.91809082 46933798.710096
33615	893616 8395 4631 14232 54.5 117 251 486.85000610352 735.56745910645 130888.82949829 69391596.306625
vector 33818  IntersectionExampleScenario.node[54].veinsmobility  posx  ETV
vector 33819  IntersectionExampleScenario.node[54].veinsmobility  posy  ETV
vector 33825  IntersectionExampleScenario.node[55].veinsmobility  posx  ETV
vector 33826  IntersectionExampleScenario.node[55].veinsmobility  posy  ETV
vector 33820  IntersectionExampleScenario.node[54].veinsmobility  speed  ETV
vector 33821  IntersectionExampleScenario.node[54].veinsmobility  acceleration  ETV
vector 33822  IntersectionExampleScenario.node[54].veinsmobility  co2emission  ETV
vector 33827  IntersectionExampleScenario.node[55].veinsmobility  speed  ETV
vector 33828  IntersectionExampleScenario.node[55].veinsmobility  acceleration  ETV
vector 33829  IntersectionExampleScenario.node[55].veinsmobility  co2emission  ETV
33633	902813 7269 5391 14431 60.5 118.25 232 0.973 11.200708441096 575.26408389296 2666.377436897
33632	910082 7443 5391 14431 60.5 118.25 232 -3.9177966117859 2.5000000298023 35.964826583862 339.77206371625
33631	917525 7652 5358 14431 60.25 118.25 233 0 15.02499961853 2211.4830170572 29005.88287036
33630	925177 7861 5327 14431 60 118.25 234 184.17810058594 487.0588684082 97547.293273926 42668813.780271
33629	933038 7897 5327 14431 60 118.25 234 235.63165283203 486.85000610352 105109.85794067 48358775.709576
33640	940935 7292 5423 14554 60.75 119 234 0.973 11.990504229548 630.76246429272 3118.5248511024
33639	948227 7491 5423 14554 60.75 119 234 -4.5 2.5000019073486 40.038900375366 467.23283390268
33638	955718 7751 5391 14554 60.5 119 235 0 16.125 2318.4620125405 31569.768531102
33637	963469 7924 5358 14554 60.25 119 236 159.76721191406 734.70091247559 103598.28999329 50197367.78406
33636	971393 7977 5358 14554 60.25 119 236 486.85000610352 486.85000610352 114896.60144043 55937411.112546
vector 33832  IntersectionExampleScenario.node[56].veinsmobility  posx  ETV
vector 33833  IntersectionExampleScenario.node[56].veinsmobility  posy  ETV
vector 33834  IntersectionExampleScenario.node[56].veinsmobility  speed  ETV
vector 33839  IntersectionExampleScenario.node[57].veinsmobility  posx  ETV
vector 33840  IntersectionExampleScenario.node[57].veinsmobility  posy  ETV
vector 33835  IntersectionExampleScenario.node[56].veinsmobility  acceleration  ETV
vector 33836  IntersectionExampleScenario.node[56].veinsmobility  co2emission  ETV
vector 33841  IntersectionExampleScenario.node[57].veinsmobility  speed  ETV
vector 33842  IntersectionExampleScenario.node[57].veinsmobility  acceleration  ETV
vector 33843  IntersectionExampleScenario.node[57].veinsmobility  co2emission  ETV
vector 33846  IntersectionExampleScenario.node[58].veinsmobility  posx  ETV
vector 33847  IntersectionExampleScenario.node[58].veinsmobility  posy  ETV
33654	980326 7492 5921 15236 64.75 123.75 237 0.973 11.200708441096 595.15236349787 2769.9589247313
33653	987818 7432 5921 15236 64.75 123.75 237 -4.5 2.5 35.455564498901 430.09476630913
33652	995250 7717 5890 15236 64.5 123.75 238 0 15.02499961853 2268.0878177583 28864.012280293
33651	1002967 8101 5859 15236 64.25 123.75 239 164.72723388672 483.14999389648 96840.025268555 41484278.225172
33650	1011068 8106 5859 15236 64.25 123.75 239 486.85000610352 734.88475036621 125048.83187866 66545878.156992
vector 33848  IntersectionExampleScenario.node[58].veinsmobility  speed  ETV
vector 33849  IntersectionExampleScenario.node[58].veinsmobility  acceleration  ETV
vector 33850  IntersectionExampleScenario.node[58].veinsmobility  co2emission  ETV
33675	1019421 7326 6423 15513 68.5 125.75 230 0.973 11.200708441096 600.42484612852 2879.6256375476
33674	1026747 7131 6423 15513 68.5 125.75 230 -3.794002532959 2.5 35.625318527222 409.72233676669
33673	1033878 7454 6386 15513 68.25 125.75 231 0 15.02499961853 2281.0366583169 29155.484936826
33672	1041332 7889 6351 15513 68 125.75 232 166.49176025391 486.87454223633 93650.999084473 40021169.273326
33671	1049221 7886 6351 15513 68 125.75 232 236.31463623047 486.85000610352 104134.07791138 47879082.543575
33647	1057107 7580 5675 15612 62.75 126.5 256 0.973 11.200708441096 658.08782163088 3326.295061035
33646	1064687 6710 5675 15612 62.75 126.5 256 -17.972957611084 4 37.492597579956 785.77062249088
33645	1071397 7237 5642 15612 62.5 126.5 257 0 15.03323841095 2203.6715545654 30136.837859604
33644	1078634 8758 5609 15612 62.25 126.5 258 483.14999389648 785.82187652588 140721.76525116 78865428.322895
33643	1087392 8761 5609 15612 62.25 126.5 258 483.14999389648 733.36793518066 133187.00154114 69895677.817363
vector 33853  IntersectionExampleScenario.node[59].veinsmobility  posx  ETV
vector 33854  IntersectionExampleScenario.node[59].veinsmobility  posy  ETV
vector 33855  IntersectionExampleScenario.node[59].veinsmobility  speed  ETV
vector 33856  IntersectionExampleScenario.node[59].veinsmobility  acceleration  ETV
vector 33857  IntersectionExampleScenario.node[59].veinsmobility  co2emission  ETV
33661	1096554 8244 6049 16017 65.75 129.5 256 0.973 11.200708441096 613.80378688064 2714.1566920604
33660	1104798 8414 6049 16017 65.75 129.5 256 -4.5 2.5 35.625318527222 406.83368512691
33659	1113212 8420 6016 16017 65.5 129.5 257 0 15.02499961853 2255.0343632624 30164.888971655
33658	1121632 8776 5983 16017 65.25 129.5 258 482.96948242188 798.59687805176 142428.41854858 80938058.631492
33657	1130408 8780 5983 16017 65.25 129.5 258 483.14999389648 733.29331970215 133441.59324646 70184830.172328
vector 33860  IntersectionExampleScenario.node[60].veinsmobility  posx  ETV
vector 33861  IntersectionExampleScenario.node[60].veinsmobility  posy  ETV
vector 33862  IntersectionExampleScenario.node[60].veinsmobility  speed  ETV
33682	1139420 8019 6460 16316 68.75 131.75 253 0.973 11.200708441096 622.77084285509 2805.089540151
33681	1147439 8227 6460 16316 68.75 131.75 253 -4.5 2.5 38.341367721558 367.81836263096
33680	1155666 8326 6423 16316 68.5 131.75 254 0 15.304278373718 2263.7908487245 29870.069510536
33679	1163992 8688 6386 16316 68.25 131.75 255 486.68600463867 804.98439025879 142417.59906769 81821188.596797
33678	1172680 8703 6386 16316 68.25 131.75 255 236.27648925781 483.14999389648 114960.99304199 52911187.441804
vector 33863  IntersectionExampleScenario.node[60].veinsmobility  acceleration  ETV
vector 33864  IntersectionExampleScenario.node[60].veinsmobility  co2emission  ETV
vector 33867  IntersectionExampleScenario.node[61].veinsmobility  posx  ETV
vector 33868  IntersectionExampleScenario.node[61].veinsmobility  posy  ETV
33689	1181706 7064 7463 16386 75.5 132.25 228 0.973 11.990504229548 592.63149046941 3054.8427317612
33688	1188770 7567 7463 16386 75.5 132.25 228 -3.9803116321564 2.5000019073486 40.038900375366 349.60124555449
33687	1196337 7625 7424 16386 75.25 132.25 229 0 16.125 2207.8548871018 29442.636760389
33686	1203962 7864 7385 16386 75 132.25 230 239.02203369141 785.82187652588 120907.05112457 67602256.366243
33685	1211826 7884 7385 16386 75 132.25 230 483.14999389648 483.14999389648 111124.49859619 53689800.8185
vector 33874  IntersectionExampleScenario.node[62].veinsmobility  posx  ETV
vector 33875  IntersectionExampleScenario.node[62].veinsmobility  posy  ETV
vector 33869  IntersectionExampleScenario.node[61].veinsmobility  speed  ETV
vector 33870  IntersectionExampleScenario.node[61].veinsmobility  acceleration  ETV
vector 33871  IntersectionExampleScenario.node[61].veinsmobility  co2emission  ETV
vector 33876  IntersectionExampleScenario.node[62].veinsmobility  speed  ETV
vector 33877  IntersectionExampleScenario.node[62].veinsmobility  acceleration  ETV
vector 33878  IntersectionExampleScenario.node[62].veinsmobility  co2emission  ETV
vector 33881  IntersectionExampleScenario.node[63].veinsmobility  posx  ETV
vector 33882  IntersectionExampleScenario.node[63].veinsmobility  posy  ETV
vector 33883  IntersectionExampleScenario.node[63].veinsmobility  speed  ETV
vector 33884  IntersectionExampleScenario.node[63].veinsmobility  acceleration  ETV
vector 33885  IntersectionExampleScenario.node[63].veinsmobility  co2emission  ETV
vector 33888  IntersectionExampleScenario.node[64].veinsmobility  posx  ETV
vector 33889  IntersectionExampleScenario.node[64].veinsmobility  posy  ETV
vector 33895  IntersectionExampleScenario.node[65].veinsmobility  posx  ETV
vector 33896  IntersectionExampleScenario.node[65].veinsmobility  posy  ETV
vector 33890  IntersectionExampleScenario.node[64].veinsmobility  speed  ETV
vector 33891  IntersectionExampleScenario.node[64].veinsmobility  acceleration  ETV
vector 33892  IntersectionExampleScenario.node[64].veinsmobility  co2emission  ETV
vector 33897  IntersectionExampleScenario.node[65].veinsmobility  speed  ETV
33710	1221392 6541 8743 16832 83.75 135.25 207 0.973 11.648172402475 582.50608739296 2902.1396825191
33709	1227933 6107 8743 16832 83.75 135.25 207 -6.8118047714233 4 38.850629806519 467.92604446453
33708	1234040 6370 8702 16832 83.5 135.25 208 0 15.64999961853 2217.5870535374 31627.947500146
33707	1240410 7217 8663 16832 83.25 135.25 209 483.14999389648 483.14999389648 100978.34872437 48787688.569854
33706	1247627 7190 8663 16832 83.25 135.25 209 184.17810058594 734.58847045898 95030.824066162 47375387.640873
vector 33898  IntersectionExampleScenario.node[65].veinsmobility  acceleration  ETV
vector 33899  IntersectionExampleScenario.node[65].veinsmobility  co2emission  ETV
33731	1254986 6538 9002 16955 85.25 136 204 0.973 11.200708441096 554.98584470344 2687.7266729868
33730	1261524 6017 9002 16955 85.25 136 204 -6.8640689849854 4 35.625318527222 451.18975026733
33729	1267541 6404 8957 16955 85 136 205 0 15.02499961853 2216.7832789421 30264.160606425
33728	1273945 7122 8912 16955 84.75 136 206 486.85000610352 486.85000610352 100291.10125732 48826723.259256
33727	1281067 7106 8912 16955 84.75 136 206 235.25030517578 785.82187652588 106138.22077179 59012229.281386
33745	1288173 6361 9577 17034 88.5 136.5 193 0.973 11.450879080643 567.988549935 2848.7942137423
33744	1294534 5890 9577 17034 88.5 136.5 193 -4.5 2.5 38.850629806519 424.37887630449
33743	1300424 6506 9533 17034 88.25 136.5 194 0 15.376951217651 2250.5227134991 31511.653602844
33742	1306930 6756 9488 17034 88 136.5 195 236.81408691406 486.85000610352 86592.734130859 39485551.347172
33741	1313686 6749 9488 17034 88 136.5 195 482.96936035156 797.07032012939 110127.14221954 64269069.134342
33759	1320435 5600 10620 17229 95.25 137.75 171 0.973 11.648172402475 519.24877137124 2753.2976815114
33758	1326035 5509 10620 17229 95.25 137.75 171 -2.1303367614746 2.5 38.850629806519 254.14879589793
33757	1331544 5779 10579 17229 95 137.75 172 5.227719783783 15.64999961853 2209.6258535385 30105.56335509
33756	1337323 6035 10540 17229 94.75 137.75 173 486.85000610352 486.85000610352 84225.051055908 41004966.620638
33755	1343358 5988 10540 17229 94.75 137.75 173 238.75537109375 785.82187652588 90827.417549133 51779450.205605
vector 33902  IntersectionExampleScenario.node[66].veinsmobility  posx  ETV
vector 33903  IntersectionExampleScenario.node[66].veinsmobility  posy  ETV
vector 33904  IntersectionExampleScenario.node[66].veinsmobility  speed  ETV
33717	1349578 7226 8786 17309 84 138.25 218 0.973 11.059115618093 573.6309507203 2591.1679203122
33716	1356804 7220 8786 17309 84 138.25 218 -4.5 2.5 35.625318527222 395.01050860976
33715	1364024 7437 8743 17309 83.75 138.25 219 0 14.83992767334 2307.3047337662 30910.067314836
33714	1371461 7603 8702 17309 83.5 138.25 220 483.14999389648 483.14999389648 106292.99865723 51355461.652478
33713	1379064 7566 8702 17309 83.5 138.25 220 159.76721191406 732.21018981934 96993.746109009 47752424.06512
vector 33905  IntersectionExampleScenario.node[66].veinsmobility  acceleration  ETV
vector 33906  IntersectionExampleScenario.node[66].veinsmobility  co2emission  ETV
vector 33909  IntersectionExampleScenario.node[67].veinsmobility  posx  ETV
vector 33910  IntersectionExampleScenario.node[67].veinsmobility  posy  ETV
vector 33911  IntersectionExampleScenario.node[67].veinsmobility  speed  ETV
vector 33912  IntersectionExampleScenario.node[67].veinsmobility  acceleration  ETV
vector 33913  IntersectionExampleScenario.node[67].veinsmobility  co2emission  ETV
33766	1387200 5919 10661 17669 95.5 140.5 181 0.973 11.36141391502 541.07618576795 2849.0797686615
33765	1393119 5839 10661 17669 95.5 140.5 181 -2.901538848877 2.5 37.15309715271 318.50618715773
33764	1398958 6019 10620 17669 95.25 140.5 182 4.7563099861145 15.25 2186.5907287598 28610.367615536
33763	1404977 6369 10579 17669 95 140.5 183 236.32873535156 483.14999389648 80042.104797363 36000587.697802
33762	1411346 6352 10579 17669 95 140.5 183 184.17810058594 483.14999389648 73418.089508057 31243144.323743
33787	1417698 5323 11753 17833 102 141.5 159 0.973 11.598500081989 501.75764257802 2952.1869715995
33786	1423021 5168 11753 17833 102 141.5 159 -2.9633979797363 2.5 37.32285118103 246.6370392328
33785	1428189 5360 11710 17833 101.75 141.5 160 5.6500000953674 15.580848693848 2219.2478723526 31414.40535471
33784	1433549 5635 11667 17833 101.5 141.5 161 486.85000610352 486.85000610352 78382.850982666 38160691.479322
33783	1439184 5619 11667 17833 101.5 141.5 161 236.0390625 785.82187652588 84076.348091125 48131986.659066
33794	1444803 5384 12178 18145 104.5 143.5 157 0.973 11.54047740176 487.89890397554 2474.1778802738
33793	1450187 5139 12178 18145 104.5 143.5 157 -4.0041351318359 2.5 39.699392318726 190.40336478124
33792	1455326 5304 12135 18145 104.25 143.5 158 5.6500000953674 15.672706604004 2284.6526012421 33735.809441885
33791	1460630 5564 12092 18145 104 143.5 159 486.85000610352 486.85000610352 77409.150970459 37686645.622436
33790	1466194 5543 12092 18145 104 143.5 159 235.61419677734 801.41563415527 84158.684928894 49002936.11046
vector 33916  IntersectionExampleScenario.node[68].veinsmobility  posx  ETV
vector 33917  IntersectionExampleScenario.node[68].veinsmobility  posy  ETV
vector 33918  IntersectionExampleScenario.node[68].veinsmobility  speed  ETV
vector 33919  IntersectionExampleScenario.node[68].veinsmobility  acceleration  ETV
vector 33920  IntersectionExampleScenario.node[68].veinsmobility  co2emission  ETV
vector 33923  IntersectionExampleScenario.node[69].veinsmobility  posx  ETV
vector 33924  IntersectionExampleScenario.node[69].veinsmobility  posy  ETV
vector 33925  IntersectionExampleScenario.node[69].veinsmobility  speed  ETV
vector 33930  IntersectionExampleScenario.node[70].veinsmobility  posx  ETV
vector 33931  IntersectionExampleScenario.node[70].veinsmobility  posy  ETV
vector 33937  IntersectionExampleScenario.node[71].veinsmobility  posx  ETV
vector 33938  IntersectionExampleScenario.node[71].veinsmobility  posy  ETV
vector 33926  IntersectionExampleScenario.node[69].veinsmobility  acceleration  ETV
vector 33927  IntersectionExampleScenario.node[69].veinsmobility  co2emission  ETV
33696	1472847 8487 7701 18819 77 148 285 0.973 11.90022389248 694.68365842844 3381.3832688303
33695	1481334 8282 7701 18819 77 148 285 -6.9822716712952 4 39.699392318726 611.67109714655
33694	1489616 8530 7660 18819 76.75 148 286 0 16 2219.6931097507 29719.858119866
33693	1498146 9846 7619 18819 76.5 148 287 184.17810058594 734.53973388672 129887.02008057 62962003.788758
33692	1507992 9891 7619 18819 76.5 148 287 486.85000610352 486.85003662109 139725.95181274 68025580.522569
vector 33944  IntersectionExampleScenario.node[72].veinsmobility  posx  ETV
vector 33945  IntersectionExampleScenario.node[72].veinsmobility  posy  ETV
vector 33932  IntersectionExampleScenario.node[70].veinsmobility  speed  ETV
vector 33939  IntersectionExampleScenario.node[71].veinsmobility  speed  ETV
vector 33933  IntersectionExampleScenario.node[70].veinsmobility  acceleration  ETV
vector 33934  IntersectionExampleScenario.node[70].veinsmobility  co2emission  ETV
vector 33940  IntersectionExampleScenario.node[71].veinsmobility  acceleration  ETV
vector 33941  IntersectionExampleScenario.node[71].veinsmobility  co2emission  ETV
vector 33946  IntersectionExampleScenario.node[72].veinsmobility  speed  ETV
vector 33947  IntersectionExampleScenario.node[72].veinsmobility  acceleration  ETV
vector 33948  IntersectionExampleScenario.node[72].veinsmobility  co2emission  ETV
33724	1518778 8028 8829 19118 84.25 149.75 263 0.973 11.810082123732 653.4533683857 3290.6798423116
33723	1526806 7983 8829 19118 84.25 149.75 263 -4.5 2.5 38.511121749878 493.82346377214
33722	1534789 8086 8786 19118 84 149.75 264 0 15.875 2189.0753857084 27999.580381219
33721	1542875 9155 8743 19118 83.75 149.75 265 184.17810058594 483.14999389648 110981.53707886 48480648.976865
33720	1552030 9167 8743 19118 83.75 149.75 265 486.85000610352 734.25434875488 137241.56864929 72174679.035785
vector 33951  IntersectionExampleScenario.node[73].veinsmobility  posx  ETV
vector 33952  IntersectionExampleScenario.node[73].veinsmobility  posy  ETV
vector 33953  IntersectionExampleScenario.node[73].veinsmobility  speed  ETV
33780	1561429 6969 11367 19718 99.75 153.75 217 0.973 11.990504229548 585.17034563011 2898.1139288849
33779	1568398 7238 11367 19718 99.75 153.75 217 -4.5 2.5000004768372 39.529638290405 387.27263806784
33778	1575636 7374 11323 19718 99.5 153.75 218 0 16.125 2210.0044480935 29491.020008843
33777	1583010 7616 11278 19718 99.25 153.75 219 184.17810058594 731.57247924805 97307.92338562 47328828.967994
33776	1590626 7664 11278 19718 99.25 153.75 219 486.85000610352 486.85000610352 106620.15133667 51908021.329015
33752	1598290 7568 10540 19718 94.75 153.75 237 0.973 10.916047529558 560.10812543741 2492.9827019422
33751	1605858 7906 10540 19718 94.75 153.75 237 -3.9632022380829 2.5 34.267293930054 303.58789760596
33750	1613764 7946 10503 19718 94.5 153.75 238 0 14.625 2192.215684751 27207.732588118
33749	1621710 8306 10466 19718 94.25 153.75 239 184.17810058594 483.19924926758 98741.703338623 42751146.219068
33748	1630016 8334 10466 19718 94.25 153.75 239 486.85000610352 735.2306060791 125244.65014648 66771619.713666
vector 33954  IntersectionExampleScenario.node[73].veinsmobility  acceleration  ETV
vector 33955  IntersectionExampleScenario.node[73].veinsmobility  co2emission  ETV
33703	1638519 8974 8362 20223 81.25 157.5 306 0.94600815583079 12.26218747632 705.17003217759 3539.3435045338
33702	1647493 9050 8362 20223 81.25 157.5 306 -7.6957621574402 4 41.566686630249 567.94138135819
33701	1656543 9083 8323 20223 81 157.5 307 0 16.5 2172.9847111106 28680.675156297
33700	1665626 10647 8284 20223 80.75 157.5 308 486.63604736328 785.82187652588 167651.30251312 93297934.254993
33699	1676273 10587 8284 20223 80.75 157.5 308 238.05474853516 483.14999389648 141088.8364563 65692331.934011
vector 33958  IntersectionExampleScenario.node[74].veinsmobility  posx  ETV
vector 33959  IntersectionExampleScenario.node[74].veinsmobility  posy  ETV
vector 33960  IntersectionExampleScenario.node[74].veinsmobility  speed  ETV
vector 33961  IntersectionExampleScenario.node[74].veinsmobility  acceleration  ETV
vector 33962  IntersectionExampleScenario.node[74].veinsmobility  co2emission  ETV
vector 33965  IntersectionExampleScenario.node[75].veinsmobility  posx  ETV
vector 33966  IntersectionExampleScenario.node[75].veinsmobility  posy  ETV
vector 33967  IntersectionExampleScenario.node[75].veinsmobility  speed  ETV
vector 33968  IntersectionExampleScenario.node[75].veinsmobility  acceleration  ETV
vector 33969  IntersectionExampleScenario.node[75].veinsmobility  co2emission  ETV
33738	1687662 9195 9002 20468 85.25 159.5 298 0.973 11.54047740176 666.11855128281 2984.2573296237
33737	1696857 9577 9002 20468 85.25 159.5 298 -3.782395362854 2.5 37.492597579956 430.87974063215
33736	1706434 9589 8957 20468 85 159.5 299 0 15.5 2240.4835973103 28308.177474832
33735	1716023 10395 8912 20468 84.75 159.5 300 236.53460693359 792.02188110352 156558.80226898 86117100.247509
33734	1726418 10413 8912 20468 84.75 159.5 300 483.14999389648 483.14999389648 144944.99816895 70030174.980652
vector 33972  IntersectionExampleScenario.node[76].veinsmobility  posx  ETV
vector 33973  IntersectionExampleScenario.node[76].veinsmobility  posy  ETV
vector 33974  IntersectionExampleScenario.node[76].veinsmobility  speed  ETV
vector 33975  IntersectionExampleScenario.node[76].veinsmobility  acceleration  ETV
vector 33976  IntersectionExampleScenario.node[76].veinsmobility  co2emission  ETV
33773	1737232 8041 11323 20686 99.5 161.25 248 0.973 12.553400930962 705.0697686272 4218.536414029
33772	1745273 8081 11323 20686 99.5 161.25 248 -4.5 2.5 42.585195541382 533.20858368788
33771	1753354 8337 11278 20686 99.25 161.25 249 0 16.89999961853 2190.9939323263 30482.865437058
33770	1761691 8726 11235 20686 99 161.25 250 486.85000610352 785.82187652588 137936.78273773 78011020.439557
33769	1770417 8718 11235 20686 99 161.25 250 235.42706298828 483.14999389648 113015.95349121 52125850.319401
vector 33979  IntersectionExampleScenario.node[77].veinsmobility  posx  ETV
vector 33980  IntersectionExampleScenario.node[77].veinsmobility  posy  ETV
vector 33981  IntersectionExampleScenario.node[77].veinsmobility  speed  ETV
vector 33982  IntersectionExampleScenario.node[77].veinsmobility  acceleration  ETV
vector 33983  IntersectionExampleScenario.node[77].veinsmobility  co2emission  ETV
33829	1779536 6023 14390 21020 118 164 185 0.973 11.648172402475 551.80972098309 2964.2438357585
33828	1785559 5895 14390 21020 118 164 185 -4.4243049621582 2.5 38.171613693237 337.26726976763
33827	1791454 6221 14349 21020 117.75 164 186 3.7504432201385 15.64999961853 2214.6790931225 29240.435256331
33826	1797675 6529 14308 21020 117.5 164 187 482.93325805664 785.82187652588 106003.8108139 61905989.994244
33825	1804204 6535 14308 21020 117.5 164 187 483.14999389648 734.59213256836 98872.738693237 53316803.941407
33843	1810739 5793 15097 21277 122.75 166.25 175 0.973 11.200708441096 514.69037581333 2681.2685038605
33842	1816532 5764 15097 21277 122.75 166.25 175 -3.9119758605957 2.5 37.32285118103 275.86045934605
33841	1822296 5886 15062 21277 122.5 166.25 176 5.6500000953674 15.260232925415 2203.53997612 29169.39320144
33840	1828182 6187 15027 21277 122.25 166.25 177 483.11953735352 785.82187652588 100895.3398056 59319258.42671
33839	1834369 6192 15027 21277 122.25 166.25 177 483.14999389648 732.17977905273 93992.657867432 50914188.542506
33815	1840561 6887 13592 21385 113 167.25 218 0.97223939240464 11.810082123732 610.12337296523 3285.3411310805
33814	1847448 6408 13592 21385 113 167.25 218 -8.2695465087891 4 38.680875778198 544.66423845024
33813	1853856 6601 13551 21385 112.75 167.25 219 0 15.875 2182.7177939415 30885.435079748
33812	1860457 7629 13509 21385 112.5 167.25 220 486.85000610352 734.74661254883 115347.05181885 61526446.419531
33811	1868086 7698 13509 21385 112.5 167.25 220 486.63604736328 785.82187652588 121595.72098541 69180244.92873
33808	1875784 6983 13468 21385 112.25 167.25 221 0.973 11.648172402475 589.69596353784 2935.0023910903
33807	1882767 6313 13468 21385 112.25 167.25 221 -7.0929417610168 4 38.341367721558 476.74127862336
33806	1889080 6693 13427 21385 112 167.25 222 0 15.64999961853 2177.7517205477 30631.668074955
33805	1895773 7740 13386 21385 111.75 167.25 223 236.95220947266 483.14999389648 99560.700958252 45488131.23835
33804	1903513 7779 13386 21385 111.75 167.25 223 184.17810058594 483.36395263672 93181.734619141 40920326.436117
33822	1911292 6582 14349 21493 117.75 168.25 203 0.9307102836125 12.409045609962 619.07517342378 3429.6096183876
33821	1917874 6979 14349 21493 117.75 168.25 203 -3.8464059829712 2.5 44.207891464233 411.00278474095
33820	1924853 6860 14308 21493 117.5 168.25 204 0 16.701972961426 2213.3999827523 31878.417354688
33819	1931713 7168 14269 21493 117.25 168.25 205 483.14999389648 734.77874755859 107182.56910706 57087201.794675
33818	1938881 7137 14269 21493 117.25 168.25 205 184.17810058594 486.90518188477 84854.512878418 37012128.329257
vector 33986  IntersectionExampleScenario.node[78].veinsmobility  posx  ETV
vector 33987  IntersectionExampleScenario.node[78].veinsmobility  posy  ETV
vector 33988  IntersectionExampleScenario.node[78].veinsmobility  speed  ETV
vector 33993  IntersectionExampleScenario.node[79].veinsmobility  posx  ETV
vector 33994  IntersectionExampleScenario.node[79].veinsmobility  posy  ETV
vector 33989  IntersectionExampleScenario.node[78].veinsmobility  acceleration  ETV
vector 33990  IntersectionExampleScenario.node[78].veinsmobility  co2emission  ETV
vector 34000  IntersectionExampleScenario.node[80].veinsmobility  posx  ETV
vector 34001  IntersectionExampleScenario.node[80].veinsmobility  posy  ETV
vector 33995  IntersectionExampleScenario.node[79].veinsmobility  speed  ETV
vector 33996  IntersectionExampleScenario.node[79].veinsmobility  acceleration  ETV
vector 33997  IntersectionExampleScenario.node[79].veinsmobility  co2emission  ETV
vector 34002  IntersectionExampleScenario.node[80].veinsmobility  speed  ETV
vector 34003  IntersectionExampleScenario.node[80].veinsmobility  acceleration  ETV
vector 34004  IntersectionExampleScenario.node[80].veinsmobility  co2emission  ETV
33850	1947221 6078 15306 21811 124.25 171 188 0.973 12.099024792222 589.40633449464 3288.6493690246
33849	1953299 5874 15306 21811 124.25 171 188 -28.098150253296 4 40.887662887573 1195.6810993941
33848	1959173 6230 15271 21811 124 171 189 0 16.27499961853 2176.4720458984 29732.958173167
33847	1965403 6640 15236 21811 123.75 171 190 486.85000610352 732.11270141602 100314.42315674 53913582.255793
33846	1972043 6635 15236 21811 123.75 171 190 486.76397705078 785.82187652588 107176.37070465 62248428.862911
33836	1978678 6315 15027 21842 122.25 171.25 197 0.973 11.648172402475 560.99587310486 2940.3565404404
33835	1984993 6281 15027 21842 122.25 171.25 197 -3.2255477905273 2.5 38.171613693237 342.25298872055
33834	1991274 6623 14993 21842 122 171.25 198 2.2197608947754 15.64999961853 2181.9916379452 28107.753736388
33833	1997897 6960 14957 21842 121.75 171.25 199 237.47155761719 483.14999389648 87980.173278809 39895475.18906
33832	2004857 6925 14957 21842 121.75 171.25 199 184.17810058594 483.14999389648 80532.21762085 34399764.483874
vector 34007  IntersectionExampleScenario.node[81].veinsmobility  posx  ETV
vector 34008  IntersectionExampleScenario.node[81].veinsmobility  posy  ETV
vector 34009  IntersectionExampleScenario.node[81].veinsmobility  speed  ETV
vector 34010  IntersectionExampleScenario.node[81].veinsmobility  acceleration  ETV
vector 34011  IntersectionExampleScenario.node[81].veinsmobility  co2emission  ETV
33885	2012183 5214 16641 22036 134 172.75 156 0.973 11.648172402475 519.56792360893 3151.5590623493
33884	2017397 4900 16641 22036 134 172.75 156 -4.5 2.5 37.832105636597 268.07701729573
33883	2022297 5256 16604 22036 133.75 172.75 157 5.6500000953674 15.64999961853 2209.8077144623 31706.432430498
33882	2027553 5531 16567 22036 133.5 172.75 158 486.85000610352 486.85000610352 76922.300964355 37449622.693993
33881	2033084 5520 16567 22036 133.5 172.75 158 238.75054931641 785.82187652588 82596.040412903 47302557.174371
33857	2038604 6132 15715 22168 127.25 173.75 187 0.973 11.648172402475 537.14012851197 2821.9000291456
33856	2044736 5977 15715 22168 127.25 173.75 187 -4.5 2.5 38.511121749878 329.07288629856
33855	2050713 6260 15680 22168 127 173.75 188 3.3730843067169 15.64999961853 2191.3028919697 28794.333145868
33854	2056973 6606 15645 22168 126.75 173.75 189 235.21014404297 483.14999389648 83034.521453857 37480514.900899
33853	2063579 6593 15645 22168 126.75 173.75 189 184.17810058594 483.20617675781 76198.929382324 32509456.745668
vector 34014  IntersectionExampleScenario.node[82].veinsmobility  posx  ETV
vector 34015  IntersectionExampleScenario.node[82].veinsmobility  posy  ETV
vector 34016  IntersectionExampleScenario.node[82].veinsmobility  speed  ETV
vector 34017  IntersectionExampleScenario.node[82].veinsmobility  acceleration  ETV
vector 34018  IntersectionExampleScenario.node[82].veinsmobility  co2emission  ETV
33899	2070573 5110 16873 22301 135.5 174.75 158 0.973 11.54047740176 479.36534754954 2686.0540599099
33898	2075683 5122 16873 22301 135.5 174.75 158 -5.6069869995117 2.5 37.492597579956 249.73982046012
33897	2080805 5339 16832 22301 135.25 174.75 159 5.6500000953674 15.5 2074.7169284821 28034.507076675
33896	2086144 5600 16791 22301 135 174.75 160 483.14999389648 483.14999389648 77303.999023438 37349426.656348
33895	2091744 5580 16791 22301 135 174.75 160 219.95471191406 733.68783569336 74131.618011475 37823549.923806
vector 34021  IntersectionExampleScenario.node[83].veinsmobility  posx  ETV
vector 34022  IntersectionExampleScenario.node[83].veinsmobility  posy  ETV
vector 34028  IntersectionExampleScenario.node[84].veinsmobility  posx  ETV
vector 34029  IntersectionExampleScenario.node[84].veinsmobility  posy  ETV
vector 34023  IntersectionExampleScenario.node[83].veinsmobility  speed  ETV
vector 34024  IntersectionExampleScenario.node[83].veinsmobility  acceleration  ETV
vector 34025  IntersectionExampleScenario.node[83].veinsmobility  co2emission  ETV
vector 34030  IntersectionExampleScenario.node[84].veinsmobility  speed  ETV
vector 34031  IntersectionExampleScenario.node[84].veinsmobility  acceleration  ETV
vector 34032  IntersectionExampleScenario.node[84].veinsmobility  co2emission  ETV
33871	2098126 5927 16459 22597 132.75 177 178 0.973 11.450879080643 579.15332564261 3157.0427908129
33870	2104053 5553 16459 22597 132.75 177 178 -4.5 2.5 38.171613693237 447.82735502196
33869	2109606 5981 16422 22597 132.5 177 179 5.6500000953674 15.375 2203.3448734283 28873.712379789
33868	2115587 6292 16386 22597 132.25 177 180 483.14999389648 732.1683807373 95334.477111816 51491438.380442
33867	2121879 6278 16386 22597 132.25 177 180 184.17810058594 486.85000610352 70406.078216553 29593052.687476
33878	2128157 6148 16496 22864 133 179 185 0.973 11.810082123732 578.45538000613 3035.7446755597
33877	2134305 6139 16496 22864 133 179 185 -4.5 2.5 38.850629806519 371.71479019296
33876	2140444 6178 16459 22864 132.75 179 186 5.6500000953674 15.875 2280.2665433884 29754.014510742
33875	2146622 6538 16422 22864 132.5 179 187 237.38610839844 483.14999389648 82260.059082031 37156109.264991
33874	2153160 6523 16422 22864 132.5 179 187 159.76721191406 483.24014282227 71438.589385986 29674001.501564
vector 34035  IntersectionExampleScenario.node[85].veinsmobility  posx  ETV
vector 34036  IntersectionExampleScenario.node[85].veinsmobility  posy  ETV
vector 34037  IntersectionExampleScenario.node[85].veinsmobility  speed  ETV
vector 34038  IntersectionExampleScenario.node[85].veinsmobility  acceleration  ETV
vector 34039  IntersectionExampleScenario.node[85].veinsmobility  co2emission  ETV
33801	2160084 8634 12689 22996 107.5 180 291 0.973 11.648172402475 695.35954285008 3428.5470561593
33800	2168718 8322 12689 22996 107.5 180 291 -39.49536895752 4 39.359884262085 2026.0510364918
33799	2177040 8686 12646 22996 107.25 180 292 0 15.64999961853 2214.1187566807 29141.292193275
33798	2185726 10212 12603 22996 107 180 293 184.17810058594 732.99418640137 132710.82958984 64289072.642043
33797	2195938 10253 12603 22996 107 180 293 486.85000610352 486.85000610352 142647.05178833 69447718.033797
vector 34042  IntersectionExampleScenario.node[86].veinsmobility  posx  ETV
vector 34043  IntersectionExampleScenario.node[86].veinsmobility  posy  ETV
vector 34044  IntersectionExampleScenario.node[86].veinsmobility  speed  ETV
vector 34045  IntersectionExampleScenario.node[86].veinsmobility  acceleration  ETV
vector 34046  IntersectionExampleScenario.node[86].veinsmobility  co2emission  ETV
33864	2206592 6246 16351 23165 132 181.25 198 0.973 12.099024792222 568.61995677433 3163.0373398783
33863	2212838 6505 16351 23165 132 181.25 198 -2.1327133178711 2.5 40.038900375366 332.02068454024
33862	2219343 6711 16316 23165 131.75 181.25 199 0.92892777919769 16.27499961853 2207.3970556259 29936.730709379
33861	2226054 6969 16281 23165 131.5 181.25 200 184.17810058594 487.03149414062 81846.238372803 35347731.96543
33860	2233023 6982 16281 23165 131.5 181.25 200 236.51922607422 486.85000610352 89161.404144287 40780469.886134
vector 34049  IntersectionExampleScenario.node[87].veinsmobility  posx  ETV
vector 34050  IntersectionExampleScenario.node[87].veinsmobility  posy  ETV
vector 34051  IntersectionExampleScenario.node[87].veinsmobility  speed  ETV
vector 34052  IntersectionExampleScenario.node[87].veinsmobility  acceleration  ETV
vector 34053  IntersectionExampleScenario.node[87].veinsmobility  co2emission  ETV
vector 34056  IntersectionExampleScenario.node[88].veinsmobility  posx  ETV
vector 34057  IntersectionExampleScenario.node[88].veinsmobility  posy  ETV
vector 34058  IntersectionExampleScenario.node[88].veinsmobility  speed  ETV
vector 34059  IntersectionExampleScenario.node[88].veinsmobility  acceleration  ETV
vector 34060  IntersectionExampleScenario.node[88].veinsmobility  co2emission  ETV
33920	2240807 5408 18371 23734 145 185.5 163 0.973 11.765207753379 562.2416255516 3504.0005885718
33919	2246215 5002 18371 23734 145 185.5 163 -3.5799808502197 2.5 38.341367721558 365.28144301867
33918	2251217 5436 18332 23734 144.75 185.5 164 5.6500000953674 15.812701225281 2183.4870038033 30403.604038985
33917	2256653 5745 18293 23734 144.5 185.5 165 184.17810058594 483.14999389648 65587.378692627 27813301.389585
33916	2262398 5770 18293 23734 144.5 185.5 165 486.85000610352 733.01622009277 88507.759246826 48409105.590996
vector 34063  IntersectionExampleScenario.node[89].veinsmobility  posx  ETV
vector 34064  IntersectionExampleScenario.node[89].veinsmobility  posy  ETV
vector 34065  IntersectionExampleScenario.node[89].veinsmobility  speed  ETV
vector 34070  IntersectionExampleScenario.node[90].veinsmobility  posx  ETV
vector 34071  IntersectionExampleScenario.node[90].veinsmobility  posy  ETV
vector 34066  IntersectionExampleScenario.node[89].veinsmobility  acceleration  ETV
vector 34067  IntersectionExampleScenario.node[89].veinsmobility  co2emission  ETV
vector 34072  IntersectionExampleScenario.node[90].veinsmobility  speed  ETV
vector 34077  IntersectionExampleScenario.node[91].veinsmobility  posx  ETV
vector 34078  IntersectionExampleScenario.node[91].veinsmobility  posy  ETV
vector 34073  IntersectionExampleScenario.node[90].veinsmobility  acceleration  ETV
vector 34074  IntersectionExampleScenario.node[90].veinsmobility  co2emission  ETV
vector 34079  IntersectionExampleScenario.node[91].veinsmobility  speed  ETV
vector 34080  IntersectionExampleScenario.node[91].veinsmobility  acceleration  ETV
vector 34081  IntersectionExampleScenario.node[91].veinsmobility  co2emission  ETV
33906	2269371 6597 17349 24284 138.5 190.25 208 0.973 11.648172402475 582.90966987982 3056.1182381764
33905	2275968 6336 17349 24284 138.5 190.25 208 -7.0437335968018 4 38.341367721558 488.80592106048
33904	2282304 6482 17309 24284 138.25 190.25 209 0 15.64999961853 2212.4996471405 31396.003255039
33903	2288786 7331 17268 24284 138 190.25 210 236.58178710938 785.82187652588 108268.844841 59983260.853194
33902	2296117 7349 17268 24284 138 190.25 210 483.14999389648 483.14999389648 101461.49871826 49021122.486456
33913	2303466 6959 17587 24470 140 191.75 208 0.973 11.648172402475 583.75232711422 2935.6484391428
33912	2310425 6540 17587 24470 140 191.75 208 -4.5 2.5 38.341367721558 444.29477132523
33911	2316965 7023 17546 24470 139.75 191.75 209 0 15.64999961853 2265.8046670035 31474.547087348
33910	2323988 7338 17505 24470 139.5 191.75 210 486.85000610352 806.11563110352 118712.22988129 69352681.10839
33909	2331326 7339 17505 24470 139.5 191.75 210 236.85931396484 483.14999389648 93275.229248047 42450647.490478
vector 34084  IntersectionExampleScenario.node[92].veinsmobility  posx  ETV
vector 34085  IntersectionExampleScenario.node[92].veinsmobility  posy  ETV
vector 34086  IntersectionExampleScenario.node[92].veinsmobility  speed  ETV
vector 34087  IntersectionExampleScenario.node[92].veinsmobility  acceleration  ETV
vector 34088  IntersectionExampleScenario.node[92].veinsmobility  co2emission  ETV
vector 34091  IntersectionExampleScenario.node[93].veinsmobility  posx  ETV
vector 34092  IntersectionExampleScenario.node[93].veinsmobility  posy  ETV
33927	2339220 6064 18819 24742 148 194 185 0.973 11.200708441096 522.10277409091 2572.637163653
33926	2345284 6136 18819 24742 148 194 185 -3.771900177002 2.5 35.285810470581 279.05638831255
33925	2351420 6349 18782 24742 147.75 194 186 3.6557929515839 15.02499961853 2219.150801897 28758.150637102
33924	2357769 6530 18744 24742 147.5 194 187 235.84143066406 785.82187652588 97515.964195251 55178780.115592
33923	2364299 6544 18744 24742 147.5 194 187 483.14999389648 483.14999389648 90349.048858643 43652142.404606
vector 34093  IntersectionExampleScenario.node[93].veinsmobility  speed  ETV
vector 34098  IntersectionExampleScenario.node[94].veinsmobility  posx  ETV
vector 34099  IntersectionExampleScenario.node[94].veinsmobility  posy  ETV
vector 34094  IntersectionExampleScenario.node[93].veinsmobility  acceleration  ETV
vector 34095  IntersectionExampleScenario.node[93].veinsmobility  co2emission  ETV
vector 34100  IntersectionExampleScenario.node[94].veinsmobility  speed  ETV
vector 34101  IntersectionExampleScenario.node[94].veinsmobility  acceleration  ETV
vector 34102  IntersectionExampleScenario.node[94].veinsmobility  co2emission  ETV
33941	2371491 6191 18903 24904 148.5 195.25 188 0.973 12.027185654884 592.87349528004 3089.8825762912
33940	2377682 6324 18903 24904 148.5 195.25 188 -4.5 2.5000038146973 41.602849960327 391.59486453143
33939	2384006 6413 18860 24904 148.25 195.25 189 2.5998647212982 16.175712585449 2315.7065243721 31592.321735727
33938	2390419 6634 18819 24904 148 195.25 190 235.84582519531 809.56562805176 101621.41430664 59077105.442026
33937	2397053 6649 18819 24904 148 195.25 190 483.14999389648 483.14999389648 91798.498840332 44352444.154413
vector 34105  IntersectionExampleScenario.node[95].veinsmobility  posx  ETV
vector 34106  IntersectionExampleScenario.node[95].veinsmobility  posy  ETV
vector 34107  IntersectionExampleScenario.node[95].veinsmobility  speed  ETV
vector 34108  IntersectionExampleScenario.node[95].veinsmobility  acceleration  ETV
vector 34109  IntersectionExampleScenario.node[95].veinsmobility  co2emission  ETV
vector 34112  IntersectionExampleScenario.node[96].veinsmobility  posx  ETV
vector 34113  IntersectionExampleScenario.node[96].veinsmobility  posy  ETV
vector 34114  IntersectionExampleScenario.node[96].veinsmobility  speed  ETV
vector 34115  IntersectionExampleScenario.node[96].veinsmobility  acceleration  ETV
vector 34116  IntersectionExampleScenario.node[96].veinsmobility  co2emission  ETV
33934	2404504 6423 18903 25366 148.5 198.75 202 0.973 12.26218747632 595.62224326987 3329.1154269288
33933	2410927 6114 18903 25366 148.5 198.75 202 -6.9978852272034 4 41.227170944214 494.3043074932
33932	2417041 6209 18860 25366 148.25 198.75 203 0 16.5 2186.1167937517 31923.520830704
33931	2423250 7061 18819 25366 148 198.75 204 486.85000610352 735.02058410645 107266.66378784 57402685.622576
33930	2430311 7134 18819 25366 148 198.75 204 486.63604736328 785.82187652588 113347.36618805 64881725.265548
33892	2437445 7968 16832 25432 135.25 199.25 257 0.973 11.810082123732 637.61044256644 2900.0304263176
33891	2445413 7736 16832 25432 135.25 199.25 257 -7.9251394271851 4 38.511121749878 489.97924068018
33890	2453149 7771 16791 25432 135 199.25 258 0 15.875 2296.5205295086 30122.519570968
33889	2460920 8987 16752 25432 134.75 199.25 259 235.74822998047 483.14999389648 116907.65457153 53862068.167072
33888	2469907 9050 16752 25432 134.75 199.25 259 155.08673095703 483.36395263672 105524.53726196 45842289.420087
33948	2478957 6478 18946 25465 148.75 199.5 204 0.93725454953808 12.44402232946 596.41639232241 3406.9203530329
33947	2485435 6809 18946 25465 148.75 199.5 204 -3.7519867420197 2.5 42.754949569702 375.14429782286
33946	2492244 6979 18903 25465 148.5 199.5 205 0 16.75 2217.6398124527 31571.956243818
33945	2499223 7211 18860 25465 148.25 199.5 206 483.14999389648 483.14999389648 99528.898742676 48087386.820047
33944	2506434 7177 18860 25465 148.25 199.5 206 184.17810058594 733.42041015625 92570.009811401 45562501.390106
33962	2513611 5715 20314 25693 158.25 201.25 173 0.973 11.54047740176 526.55500510904 2823.1901091143
33961	2519326 5524 20314 25693 158.25 201.25 173 -3.7805786132812 2.5 37.32285118103 284.71097391782
33960	2524850 5844 20283 25693 158 201.25 174 4.8500499725342 15.5 2221.7793064117 30093.305077506
33959	2530694 6125 20252 25693 157.75 201.25 175 486.85000610352 486.85000610352 85198.751068115 41479012.477524
33958	2536819 6106 20252 25693 157.75 201.25 175 235.88818359375 785.82187652588 91374.935173035 51930504.849598
33969	2542925 5646 20437 25848 159.25 202.5 174 0.973 12.099024792222 569.91815439088 3360.4722848941
33968	2548571 5450 20437 25848 159.25 202.5 174 -3.7058601379395 2.5 41.057416915894 359.93174745225
33967	2554021 5790 20406 25848 159 202.5 175 4.847375869751 16.27499961853 2189.2533211708 29989.292646108
33966	2559811 6140 20375 25848 158.75 202.5 176 235.78771972656 483.14999389648 77104.729248047 34723187.658299
33965	2565951 6137 20375 25848 158.75 202.5 176 184.17810058594 483.17626953125 70440.217559814 29921413.53414
vector 34119  IntersectionExampleScenario.node[97].veinsmobility  posx  ETV
vector 34120  IntersectionExampleScenario.node[97].veinsmobility  posy  ETV
33983	2572242 5221 21020 25910 164 203 157 0.96997852711604 12.44402232946 549.33524082605 3442.5190782828
33982	2577463 5088 21020 25910 164 203 157 -4.5 2.5 42.585195541382 335.26341742979
33981	2582551 5272 20989 25910 163.75 203 158 5.6500000953674 16.75 2210.9477128983 32282.101130208
33980	2587823 5564 20958 25910 163.5 203 159 483.14999389648 483.14999389648 76820.849029541 37115992.739745
33979	2593387 5509 20958 25910 163.5 203 159 184.17810058594 731.24047851562 70579.930618286 35254736.333951
[...]
38833	28363759 6631 233687 238443 1728.75 1781 210 -7.2451009750366 4 35.455564498901 453.54028067034
38832	28370390 7041 233669 238443 1728.5 1781 211 0 15.02499961853 2213.8000292778 30144.781914339
38831	28377431 7810 233650 238443 1728.25 1781 212 184.17810058594 734.14907836914 96469.934371948 48221636.578113
38830	28385241 7844 233650 238443 1728.25 1781 212 486.85000610352 486.85000610352 103212.20129395 50248860.829914
vector 39000  IntersectionExampleScenario.node[794].veinsmobility  speed  ETV
vector 39007  IntersectionExampleScenario.node[795].veinsmobility  speed  ETV
vector 39001  IntersectionExampleScenario.node[794].veinsmobility  acceleration  ETV
vector 39002  IntersectionExampleScenario.node[794].veinsmobility  co2emission  ETV
vector 39008  IntersectionExampleScenario.node[795].veinsmobility  acceleration  ETV
vector 39009  IntersectionExampleScenario.node[795].veinsmobility  co2emission  ETV
vector 39012  IntersectionExampleScenario.node[796].veinsmobility  posx  ETV
vector 39013  IntersectionExampleScenario.node[796].veinsmobility  posy  ETV
vector 39019  IntersectionExampleScenario.node[797].veinsmobility  posx  ETV
vector 39020  IntersectionExampleScenario.node[797].veinsmobility  posy  ETV
vector 39014  IntersectionExampleScenario.node[796].veinsmobility  speed  ETV
vector 39021  IntersectionExampleScenario.node[797].veinsmobility  speed  ETV
vector 39015  IntersectionExampleScenario.node[796].veinsmobility  acceleration  ETV
vector 39016  IntersectionExampleScenario.node[796].veinsmobility  co2emission  ETV
vector 39022  IntersectionExampleScenario.node[797].veinsmobility  acceleration  ETV
vector 39023  IntersectionExampleScenario.node[797].veinsmobility  co2emission  ETV
38862	28394397 5792 234556 238727 1742 1782.75 164 0.973 11.648172402475 510.85317482312 2747.8101741832
38861	28400189 5472 234556 238727 1742 1782.75 164 -2.0975685119629 2.5 38.511121749878 239.79600462608
38860	28405661 5911 234537 238727 1741.75 1782.75 165 5.6500000953674 15.64999961853 2214.8832535744 30833.687376132
38859	28411572 6113 234518 238727 1741.5 1782.75 166 184.17810058594 732.64778137207 74187.237380981 37282450.977467
38858	28417685 6143 234518 238727 1741.5 1782.75 166 486.85000610352 486.85000610352 80817.101013184 39345806.121537
vector 39026  IntersectionExampleScenario.node[798].veinsmobility  posx  ETV
vector 39027  IntersectionExampleScenario.node[798].veinsmobility  posy  ETV
vector 39028  IntersectionExampleScenario.node[798].veinsmobility  speed  ETV
vector 39029  IntersectionExampleScenario.node[798].veinsmobility  acceleration  ETV
vector 39030  IntersectionExampleScenario.node[798].veinsmobility  co2emission  ETV
vector 39033  IntersectionExampleScenario.node[799].veinsmobility  posx  ETV
vector 39034  IntersectionExampleScenario.node[799].veinsmobility  posy  ETV
vector 39035  IntersectionExampleScenario.node[799].veinsmobility  speed  ETV
vector 39036  IntersectionExampleScenario.node[799].veinsmobility  acceleration  ETV
vector 39037  IntersectionExampleScenario.node[799].veinsmobility  co2emission  ETV
38848	28424640 7211 234316 239945 1738.5 1791 211 0.973 11.200708441096 560.72912800753 2671.433925421
38847	28431851 6664 234316 239945 1738.5 1791 211 -6.8640689849854 4 35.625318527222 447.68975026733
38846	28438515 7033 234299 239945 1738.25 1791 212 0 15.02499961853 2205.7956194878 30004.684011173
38845	28445548 7872 234282 239945 1738 1791 213 483.14999389648 785.82187652588 118217.11856842 67625265.634182
38844	28453420 7876 234282 239945 1738 1791 213 483.14999389648 734.37588500977 111772.17524719 59768947.796395
38890	28461296 5826 235368 240238 1751.75 1793.25 167 0.973 12.099024792222 563.42661505717 3418.3609464537
38889	28467122 5618 235368 240238 1751.75 1793.25 167 -3.2078552246094 2.5 40.038900375366 363.70437043122
38888	28472740 5882 235345 240238 1751.5 1793.25 168 5.6500000953674 16.27499961853 2180.1143288612 30188.486860867
38887	28478622 6233 235321 240238 1751.25 1793.25 169 486.85000610352 785.82187652588 96492.600471497 56820669.695942
38886	28484855 6240 235321 240238 1751.25 1793.25 169 238.18206787109 483.14999389648 73753.573516846 33101723.6473
vector 39040  IntersectionExampleScenario.node[800].veinsmobility  posx  ETV
vector 39041  IntersectionExampleScenario.node[800].veinsmobility  posy  ETV
vector 39042  IntersectionExampleScenario.node[800].veinsmobility  speed  ETV
vector 39043  IntersectionExampleScenario.node[800].veinsmobility  acceleration  ETV
vector 39044  IntersectionExampleScenario.node[800].veinsmobility  co2emission  ETV
38904	28491501 5942 235553 240487 1753.75 1795.25 167 0.973 12.099024792222 568.83707831379 3256.9816998066
38903	28497443 5768 235553 240487 1753.75 1795.25 167 -4.5 2.5 40.038900375366 369.90895243825
38902	28503211 5935 235530 240487 1753.5 1795.25 168 5.6500000953674 16.27499961853 2279.0866975784 32173.994062406
38901	28509146 6243 235506 240487 1753.25 1795.25 169 483.14999389648 803.92188262939 97703.802513123 58520267.200947
38900	28515389 6247 235506 240487 1753.25 1795.25 169 483.14999389648 732.49600219727 89825.698379517 48702496.813138
vector 39047  IntersectionExampleScenario.node[801].veinsmobility  posx  ETV
vector 39048  IntersectionExampleScenario.node[801].veinsmobility  posy  ETV
vector 39049  IntersectionExampleScenario.node[801].veinsmobility  speed  ETV
vector 39050  IntersectionExampleScenario.node[801].veinsmobility  acceleration  ETV
vector 39051  IntersectionExampleScenario.node[801].veinsmobility  co2emission  ETV
38876	28522042 6993 234926 240889 1746.75 1798.5 208 0.973 11.648172402475 610.94133821475 3155.0215542633
38875	28529035 6562 234926 240889 1746.75 1798.5 208 -8.1503849029541 4 42.245687484741 499.86230113974
38874	28535597 6807 234903 240889 1746.5 1798.5 209 0 16.269784927368 2216.250595808 32971.604552453
38873	28542404 7771 234882 240889 1746.25 1798.5 210 483.14999389648 483.14999389648 101461.49871826 49021122.486456
38872	28550175 7744 234882 240889 1746.25 1798.5 210 184.17810058594 734.1153717041 95363.54397583 47321433.686626
38869	28557919 7184 234863 240951 1746 1799 213 0.973 11.810082123732 603.24365280465 3184.9707462557
38868	28565103 6637 234863 240951 1746 1799 213 -9.3741798400879 4 39.699392318726 538.85066958679
38867	28571740 6906 234843 240951 1745.75 1799 214 0 15.875 2179.2883741856 31221.253776945
38866	28578646 7885 234822 240951 1745.5 1799 215 486.85000610352 733.87629699707 112735.61212158 60133696.030515
38865	28586531 7949 234822 240951 1745.5 1799 215 486.63604736328 785.82187652588 119003.7697525 67820736.475815
vector 39054  IntersectionExampleScenario.node[802].veinsmobility  posx  ETV
vector 39055  IntersectionExampleScenario.node[802].veinsmobility  posy  ETV
vector 39056  IntersectionExampleScenario.node[802].veinsmobility  speed  ETV
vector 39057  IntersectionExampleScenario.node[802].veinsmobility  acceleration  ETV
vector 39058  IntersectionExampleScenario.node[802].veinsmobility  co2emission  ETV
38883	28594886 7545 234949 241082 1747 1800 213 0.973 11.36141391502 571.56510457297 2765.3913468556
38882	28602431 7395 234949 241082 1747 1800 213 -4.5 2.5 37.32285118103 414.74461572383
38881	28609826 7657 234926 241082 1746.75 1800 214 0 15.25 2157.2867605872 29310.646488784
38880	28617483 7949 234903 241082 1746.5 1800 215 486.85000610352 704.39878845215 111197.06269836 58254521.667932
38879	28625432 7935 234903 241082 1746.5 1800 215 486.84268188477 807.99687957764 121711.89598846 71190297.348192
38897	28633367 6645 235368 241082 1751.75 1800 194 0.973 11.962427307205 563.4012583072 3031.4917876171
38896	28640012 7143 235368 241082 1751.75 1800 194 -3.765923500061 2.5 40.038900375366 358.91715437577
38895	28647155 7065 235345 241082 1751.5 1800 195 0 16.123273849487 2164.2266096435 30183.179654805
38894	28654220 7252 235321 241082 1751.25 1800 196 483.14999389648 483.14999389648 94697.398803711 45753047.654026
38893	28661472 7206 235321 241082 1751.25 1800 196 184.17810058594 720.24726867676 87327.81829834 42719716.319304
38911	28668678 6119 235671 241082 1755 1800 181 0.973 11.36141391502 527.23094271026 2740.8364213591
38910	28674797 6434 235671 241082 1755 1800 181 -2.9047193527222 2.5 39.869150161743 301.40916018367
38909	28681231 6439 235647 241082 1754.75 1800 182 2.1086282730103 15.68185043335 1968.6320323944 25467.769347375
38908	28687670 6767 235622 241082 1754.5 1800 183 486.85000610352 679.11134338379 94032.446502686 48811844.938284
38907	28694437 6754 235622 241082 1754.5 1800 183 486.85000610352 785.82187652588 104442.23371124 61316191.092399
38918	28701191 5178 236452 241082 1763.5 1800 147 0.973 10.916047529558 484.5627400173 2859.3511377809
38917	28706369 5066 236452 241082 1763.5 1800 147 -3.3335456848145 2.5 34.26735496521 320.62643776869
38916	28711435 5178 236429 241082 1763.25 1800 148 5.6500000953674 14.625 1859.0365514755 24307.120004723
38915	28716613 5510 236406 241082 1763 1800 149 317.98992919922 483.14999389648 67994.551483154 31358802.913134
38914	28722123 5484 236406 241082 1763 1800 149 184.17810058594 483.33117675781 57333.368835449 23674997.688998
38925	28727607 4614 236715 241082 1766.5 1800 135 0.973 11.648172402475 448.19509226357 2704.545780387
38924	28732221 4381 236715 241082 1766.5 1800 135 -8.4909086227417 4 38.091772079468 493.50223109996
38923	28736602 4536 236692 241082 1766.25 1800 136 0 15.64999961853 1464.7371304035 19930.540360923
38922	28741138 5042 236669 241082 1766 1800 137 184.17810058594 546.68173217773 52613.476013184 21821766.673353
38921	28746180 5067 236669 241082 1766 1800 137 486.85000610352 486.85000610352 66698.450836182 32472141.19669
38932	28751247 4465 236911 241082 1768.75 1800 126 0.973 11.8648761472 443.99730393828 2802.6914879829
38931	28755712 4436 236911 241082 1768.75 1800 126 -3.3610877990723 2.5 39.359895706177 231.11261039727
38930	28760148 4467 236888 241082 1768.5 1800 127 5.6500000953674 15.951005935669 1802.3787536621 26232.328394479
38929	28764615 4736 236865 241082 1768.25 1800 128 486.85000610352 486.85000610352 62316.80078125 30338934.840703
38928	28769351 4701 236865 241082 1768.25 1800 128 340.64172363281 785.82187652588 73125.939704895 44053248.080751
38939	28774052 4374 236961 241082 1769.25 1800 124 0.973 10.916047529558 424.14235341743 2408.639286826
38938	28778426 4304 236961 241082 1769.25 1800 124 -3.165246963501 2.5 37.674367904663 258.13837474779
38937	28782730 4317 236936 241082 1769 1800 125 5.6500000953674 15.319926261902 1617.9714360237 22089.338291339
38936	28787047 4645 236911 241082 1768.75 1800 126 378.14752197266 483.14999389648 59254.116607666 27954774.935525
38935	28791692 4637 236911 241082 1768.75 1800 126 184.17810058594 483.16928100586 46889.730529785 18854318.060565
38946	28796329 3778 237190 241082 1771.5 1800 115 0.973 11.648172402475 293.81490246508 1482.6939400429
38945	28800107 3619 237190 241082 1771.5 1800 115 -7.2641291618347 2.5 -22.60000038147 322.33490584057
38944	28803726 3872 237163 241082 1771.25 1800 116 0 15.64999961853 1146.9074419737 16340.135465357
38943	28807598 4322 237136 241082 1771 1800 117 498.39999389648 785.82187652588 70995.593299866 44300272.100289
38942	28811920 4327 237136 241082 1771 1800 117 483.14999389648 483.14999389648 56528.549285889 27311768.242454
38953	28816247 3774 237275 241082 1772.25 1800 112 0.973 11.200708441096 288.47286194776 1385.8796071526
38952	28820021 3728 237275 241082 1772.25 1800 112 -29.79390335083 2.5 -22.60000038147 1103.5380645878
38951	28823749 3790 237246 241082 1772 1800 113 0 15.113254547119 1182.2829427719 16758.055398757
38950	28827539 4217 237217 241082 1771.75 1800 114 486.85000610352 486.85000610352 55500.900695801 27020613.842501
38949	28831756 4208 237217 241082 1771.75 1800 114 498.39999389648 795.46562957764 70593.689094543 44955104.956733
38960	28835964 3742 237370 241082 1773 1800 109 0.973 11.200708441096 280.02526523437 1357.684191696
38959	28839706 3976 237370 241082 1773 1800 109 -4.5 2.5 -21.775249361992 274.59451057921
38958	28843682 4050 237337 241082 1772.75 1800 110 0 15.189432144165 1201.7546288576 16440.437919009
38957	28847732 4095 237304 241082 1772.5 1800 111 505.35803222656 806.11563110352 70259.417556763 45670086.413728
38956	28851827 4106 237304 241082 1772.5 1800 111 483.14999389648 483.14999389648 53629.64932251 25911164.742841
38967	28855933 3631 237370 241082 1773 1800 109 0.973 11.288652499781 290.67229990311 1454.8688571879
38966	28859564 3848 237370 241082 1773 1800 109 -6.9568266868591 2.5 -22.60000038147 328.31231513549
38965	28863412 3835 237337 241082 1772.75 1800 110 0 15.648397445679 1177.8904055357 16056.042537014
38964	28867247 4106 237304 241082 1772.5 1800 111 483.14999389648 483.14999389648 53629.64932251 25911164.742841
38963	28871353 4098 237304 241082 1772.5 1800 111 176.21716308594 471.60000610352 37837.041015625 14101445.923172
38974	28875451 3748 237506 241082 1774 1800 105 0.973 12.44402232946 431.66929779629 2976.8205077828
38973	28879199 3540 237506 241082 1774 1800 105 -4.5 2.5 42.794027328491 297.20104005165
38972	28882739 3676 237471 241082 1773.75 1800 106 5.6500000953674 16.75 1513.6776027679 22391.680837564
38971	28886415 3958 237436 241082 1773.5 1800 107 483.14999389648 483.14999389648 51697.049346924 24977429.076432
38970	28890373 3948 237436 241082 1773.5 1800 107 208.02264404297 580.63854980469 41497.502410889 17459900.645787
38981	28894321 3032 238034 241082 1778 1800 89 0.973 11.200708441096 244.74750338653 1274.2496675627
38980	28897353 3212 238034 241082 1778 1800 89 -3.9810371398926 2.5 -8.1528835296631 200.48741429802
38979	28900565 3314 238001 241082 1777.75 1800 90 3.6117792129517 15.02499961853 1125.1139075756 15004.861498813
38978	28903879 3366 237968 241082 1777.5 1800 91 483.14999389648 483.14999389648 43966.64944458 21242486.410798
38977	28907245 3357 237968 241082 1777.5 1800 91 175.65588378906 456.03869628906 28860.884735107 9900172.6640467
38988	28910602 2903 238137 241082 1778.75 1800 86 0.973 11.200708441096 245.20788649071 1294.4407532984
38987	28913505 3108 238137 241082 1778.75 1800 86 -2.7859878540039 2.5 -6.0383148193359 175.49555817706
38986	28916613 3201 238102 241082 1778.5 1800 87 4.1404213905334 15.244337081909 1063.4438071251 14231.696029728
38985	28919814 3256 238067 241082 1778.25 1800 88 486.85000610352 486.85000610352 42842.800537109 20858017.702983
38984	28923070 3249 238067 241082 1778.25 1800 88 521.20474243164 785.82187652588 57021.503166199 37621592.888532
38995	28926319 2700 238443 241082 1781 1800 77 0.973 10.800356422242 250.25724021173 1345.2665497586
38994	28929019 2700 238443 241082 1781 1800 77 -4.5 2.5 11.835645675659 202.01115179621
38993	28931719 2873 238408 241082 1780.75 1800 78 5.6500000953674 15.61863899231 982.32218360901 13205.346063004
38992	28934592 2922 238373 241082 1780.5 1800 79 483.14999389648 483.14999389648 38168.849517822 18441279.411572
38991	28937514 2910 238373 241082 1780.5 1800 79 167.14202880859 409.76086425781 21927.048706055 6569086.600954
39002	28940424 2547 238521 241082 1781.5 1800 75 0.973 11.200708441096 228.20049992955 1273.1007114006
39001	28942971 2572 238521 241082 1781.5 1800 75 -2.1797370910645 2.5 5.2397994995117 150.7668216438
39000	28945543 2795 238482 241082 1781.25 1800 76 5.6500000953674 15.02499961853 966.5275554657 12916.736608209
38999	28948338 2842 238443 241082 1781 1800 77 546.28512573242 785.82187652588 51390.982826233 34759431.689324
38998	28951180 2847 238443 241082 1781 1800 77 483.14999389648 483.14999389648 37202.549530029 17974411.578367
39009	28954027 2747 238521 241082 1781.5 1800 75 0.973 11.200708441096 243.12468237636 1298.8790332526
39008	28956774 2507 238521 241082 1781.5 1800 75 -0.42623138427734 2.5 35.795072555542 94.165246820256
39007	28959281 2797 238482 241082 1781.25 1800 76 5.6500000953674 15.02499961853 1042.6047058105 14667.642949571
39006	28962078 2828 238443 241082 1781 1800 77 184.17810058594 439.95556640625 23314.628540039 7537773.8136518
39005	28964906 2847 238443 241082 1781 1800 77 486.85000610352 486.85000610352 37487.450469971 18250765.49011
39016	28967753 2597 238685 241082 1782.5 1800 71 0.973 11.385953267212 239.31175246651 1311.8697865401
39015	28970350 2470 238685 241082 1782.5 1800 71 -0.430908203125 2.5 36.813589096069 93.502459775311
39014	28972820 2658 238642 241082 1782.25 1800 72 5.6500000953674 15.284304618835 992.40224933624 14081.141316992
39013	28975478 2677 238599 241082 1782 1800 73 162.00311279297 405.15301513672 19965.903747559 5874200.0202241
39012	28978155 2699 238599 241082 1782 1800 73 486.85000610352 486.85000610352 35540.050445557 17302673.776338
39023	28980854 2457 238685 241082 1782.5 1800 71 0.973 11.200708441096 239.19783479015 1338.6853942667
39022	28983311 2453 238685 241082 1782.5 1800 71 -4.5 2.5 1.0771064758301 235.1207756061
39021	28985764 2652 238642 241082 1782.25 1800 72 5.5489416122437 16.085750579834 921.99876403809 12862.47406047
39020	28988416 2699 238599 241082 1782 1800 73 483.14999389648 483.14999389648 35269.949554443 17040675.911959
39019	28991115 2690 238599 241082 1782 1800 73 198.61456298828 427.77844238281 22875.348907471 7590871.4724128
39030	28993805 2321 239009 241082 1784.5 1800 63 1.0754459982485 10.771388520425 209.02956814267 1094.4235728535
39029	28996126 2339 239009 241082 1784.5 1800 63 -0.28907775878906 2.5000019073486 35.240283966064 84.112970670838
39028	28998465 2361 238968 241082 1784.25 1800 64 5.3218755722046 14.421023368835 831.38685369492 11165.971387396
39027	29000826 2388 238927 241082 1784 1800 65 154.96716308594 358.1171875 16067.061279297 4231287.4084906
39026	29003214 2403 238927 241082 1784 1800 65 486.85000610352 486.85000610352 31645.250396729 15406490.348795
39037	29005617 1583 239735 241082 1789.5 1800 43 1.9731354198638 10.756497587458 187.99887381171 1137.2661824643
39036	29007200 1496 239735 241082 1789.5 1800 43 -0.058689117431641 2.5 38.854803085327 88.622358699682
39035	29008696 1612 239700 241082 1789.25 1800 44 5.6500000953674 15.421343803406 589.97119140625 8283.064493648
39034	29010308 1660 239665 241082 1789 1800 45 168.94079589844 311.33441162109 10390.84588623 2489429.2239142
39033	29011968 1663 239665 241082 1789 1800 45 486.85000610352 486.85000610352 21908.250274658 10666031.779935
39044	29013631 810 240425 241082 1794.75 1800 22 2.0566058862986 11.648172402475 153.02746857948 1248.9979903863
39043	29014441 641 240425 241082 1794.75 1800 22 -0.052703857421875 2.5 41.385274887085 100.41633673027
39042	29015082 840 240394 241082 1794.5 1800 23 5.6500000953674 16.009494781494 276.37739372253 3602.1751686028
39041	29015922 888 240362 241082 1794.25 1800 24 179.47082519531 243.22888183594 4917.9037475586 1017336.0071651
39040	29016810 888 240362 241082 1794.25 1800 24 486.85000610352 486.85000610352 11684.400146484 5688550.2826318
39051	29017698 476 240703 241082 1797 1800 13 5.2162187258585 10.315404520939 100.64515864481 812.01557512667
39050	29018174 335 240703 241082 1797 1800 13 2.4999980926514 2.5 32.499998092651 81.24999046326
39049	29018509 510 240672 241082 1796.75 1800 14 5.6500000953674 13.77499961853 135.97499656677 1409.5242963886
39048	29019019 554 240641 241082 1796.5 1800 15 483.14999389648 483.14999389648 7247.2499084473 3501508.7490326
39047	29019573 542 240641 241082 1796.5 1800 15 184.17810058594 213.71246337891 2940.9748535156 577965.59088425
39058	29020115 73 241048 241082 1799.75 1800 2 5.2162187258585 5.6304533568076 10.846672082666 58.910942799184
39057	29020188 49 241048 241082 1799.75 1800 2 2.5 2.5 5 12.5
39056	29020237 110 241015 241082 1799.5 1800 3 5.6500000953674 6.9000000953674 18.825000286102 118.90812859058
39055	29020347 148 240982 241082 1799.25 1800 4 486.85000610352 486.85000610352 1947.4000244141 948091.71377197
39054	29020495 148 240982 241082 1799.25 1800 4 782.99687957764 785.82187652588 3139.1281356812 2463536.799126
33436	29020643 643 0 241081 0 1800 31 0 31 701 16931
33437	29021286 661 0 241081 0 1800 31 0 257 3983 701815
