file 27932108 1591462706                                        
version 2
run nodebug-18-20200606-12:53:49-21956
attr configname nodebug
attr datetime 20200606-12:53:49
attr experiment nodebug
attr inifile omnetpp.ini
attr iterationvars ""
attr iterationvars2 $repetition=18
attr measurement ""
attr network "\"org.car2x.veins.modules.application.ExtTraCIScenarioManagerLaunchd.IntersectionExampleScenario\""
attr processid 21956
attr repetition 18
attr replication #18
attr resultdir results
attr runnumber 18
attr seedset 18
param **.coreDebug false
param **.debug false
param *.**.nic.mac1609_4.bitrate 18Mbps
param *.**.nic.mac1609_4.txPower 20mW
param *.**.nic.mac1609_4.useServiceChannel false
param *.**.nic.phy80211p.analogueModels "xmldoc(\"config.xml\")"
param *.**.nic.phy80211p.decider "xmldoc(\"config.xml\")"
param *.**.nic.phy80211p.sensitivity -89dBm
param *.**.nic.phy80211p.thermalNoise -110dBm
param *.**.nic.phy80211p.usePropagationDelay true
param *.**.nic.phy80211p.useThermalNoise true
param *.annotations.draw false
param *.connectionManager.alpha 2.0
param *.connectionManager.carrierFrequency "5.890e9 Hz"
param *.connectionManager.pMax 20mW
param *.connectionManager.sat -89dBm
param *.connectionManager.sendDirect true
param *.manager.autoShutdown true
param *.manager.host "\"localhost\""
param *.manager.launchConfig "xmldoc(\"paramics.launchd.xml\")"
param *.manager.margin 25
param *.manager.moduleDisplayString "\"\""
param *.manager.moduleName "\"node\""
param *.manager.moduleType "\"org.car2x.veins.nodes.Car\""
param *.manager.port 9999
param *.manager.updateInterval 250ms
param *.node[*0].veinsmobility.accidentCount 0
param *.node[*0].veinsmobility.accidentDuration 30s
param *.node[*0].veinsmobility.accidentStart 75s
param *.node[*].appl.LiderSelectZoneRadio 55.0
param *.node[*].appl.ShareDataZoneRadio 110.0
param *.node[*].appl.TiempoSemaforo 30.0
param *.node[*].appl.beaconInterval 1s
param *.node[*].appl.beaconPriority 3
param *.node[*].appl.dataOnSch false
param *.node[*].appl.dataPriority 2
param *.node[*].appl.debug false
param *.node[*].appl.headerLength "256 bit"
param *.node[*].appl.maxOffset 0.005s
param *.node[*].appl.sendBeacons false
param *.node[*].appl.sendData true
param *.node[*].applType "\"Dummy\""
param *.node[*].mobilityType "\"TraCIMobility\""
param *.node[*].mobilityType.debug true
param *.node[*].veinsmobility.x 0
param *.node[*].veinsmobility.y 0
param *.node[*].veinsmobility.z 1.895
param *.node[*].veinsmobilityType "\"org.car2x.veins.modules.mobility.traci.TraCIMobility\""
param *.node[*].veinsmobilityType.debug true
param *.playgroundSizeX 8500m
param *.playgroundSizeY 8500m
param *.playgroundSizeZ 50m
param *.world.use2D false
param *.world.useTorus false

vector 39061  IntersectionExampleScenario.manager  vehiclesinsim  ETV
attr type  int
vector 39062  IntersectionExampleScenario.manager  realtime  ETV
attr type  int
attr unit  s
vector 39065  IntersectionExampleScenario.node[0].veinsmobility  posx  ETV
vector 39066  IntersectionExampleScenario.node[0].veinsmobility  posy  ETV
vector 39067  IntersectionExampleScenario.node[0].veinsmobility  speed  ETV
vector 39068  IntersectionExampleScenario.node[0].veinsmobility  acceleration  ETV
vector 39069  IntersectionExampleScenario.node[0].veinsmobility  co2emission  ETV
vector 39072  IntersectionExampleScenario.node[1].veinsmobility  posx  ETV
vector 39073  IntersectionExampleScenario.node[1].veinsmobility  posy  ETV
vector 39074  IntersectionExampleScenario.node[1].veinsmobility  speed  ETV
vector 39075  IntersectionExampleScenario.node[1].veinsmobility  acceleration  ETV
vector 39076  IntersectionExampleScenario.node[1].veinsmobility  co2emission  ETV
vector 39079  IntersectionExampleScenario.node[2].veinsmobility  posx  ETV
vector 39080  IntersectionExampleScenario.node[2].veinsmobility  posy  ETV
vector 39081  IntersectionExampleScenario.node[2].veinsmobility  speed  ETV
vector 39082  IntersectionExampleScenario.node[2].veinsmobility  acceleration  ETV
vector 39083  IntersectionExampleScenario.node[2].veinsmobility  co2emission  ETV
vector 39086  IntersectionExampleScenario.node[3].veinsmobility  posx  ETV
vector 39087  IntersectionExampleScenario.node[3].veinsmobility  posy  ETV
vector 39093  IntersectionExampleScenario.node[4].veinsmobility  posx  ETV
vector 39094  IntersectionExampleScenario.node[4].veinsmobility  posy  ETV
vector 39088  IntersectionExampleScenario.node[3].veinsmobility  speed  ETV
vector 39095  IntersectionExampleScenario.node[4].veinsmobility  speed  ETV
vector 39089  IntersectionExampleScenario.node[3].veinsmobility  acceleration  ETV
vector 39090  IntersectionExampleScenario.node[3].veinsmobility  co2emission  ETV
vector 39096  IntersectionExampleScenario.node[4].veinsmobility  acceleration  ETV
vector 39097  IntersectionExampleScenario.node[4].veinsmobility  co2emission  ETV
vector 39100  IntersectionExampleScenario.node[5].veinsmobility  posx  ETV
vector 39101  IntersectionExampleScenario.node[5].veinsmobility  posy  ETV
vector 39102  IntersectionExampleScenario.node[5].veinsmobility  speed  ETV
vector 39103  IntersectionExampleScenario.node[5].veinsmobility  acceleration  ETV
vector 39104  IntersectionExampleScenario.node[5].veinsmobility  co2emission  ETV
vector 39107  IntersectionExampleScenario.node[6].veinsmobility  posx  ETV
vector 39108  IntersectionExampleScenario.node[6].veinsmobility  posy  ETV
vector 39109  IntersectionExampleScenario.node[6].veinsmobility  speed  ETV
vector 39110  IntersectionExampleScenario.node[6].veinsmobility  acceleration  ETV
vector 39111  IntersectionExampleScenario.node[6].veinsmobility  co2emission  ETV
vector 39114  IntersectionExampleScenario.node[7].veinsmobility  posx  ETV
vector 39115  IntersectionExampleScenario.node[7].veinsmobility  posy  ETV
vector 39116  IntersectionExampleScenario.node[7].veinsmobility  speed  ETV
vector 39117  IntersectionExampleScenario.node[7].veinsmobility  acceleration  ETV
vector 39118  IntersectionExampleScenario.node[7].veinsmobility  co2emission  ETV
vector 39121  IntersectionExampleScenario.node[8].veinsmobility  posx  ETV
vector 39122  IntersectionExampleScenario.node[8].veinsmobility  posy  ETV
vector 39123  IntersectionExampleScenario.node[8].veinsmobility  speed  ETV
vector 39124  IntersectionExampleScenario.node[8].veinsmobility  acceleration  ETV
vector 39125  IntersectionExampleScenario.node[8].veinsmobility  co2emission  ETV
vector 39128  IntersectionExampleScenario.node[9].veinsmobility  posx  ETV
vector 39129  IntersectionExampleScenario.node[9].veinsmobility  posy  ETV
vector 39130  IntersectionExampleScenario.node[9].veinsmobility  speed  ETV
vector 39131  IntersectionExampleScenario.node[9].veinsmobility  acceleration  ETV
vector 39132  IntersectionExampleScenario.node[9].veinsmobility  co2emission  ETV
vector 39135  IntersectionExampleScenario.node[10].veinsmobility  posx  ETV
vector 39136  IntersectionExampleScenario.node[10].veinsmobility  posy  ETV
vector 39142  IntersectionExampleScenario.node[11].veinsmobility  posx  ETV
vector 39143  IntersectionExampleScenario.node[11].veinsmobility  posy  ETV
vector 39137  IntersectionExampleScenario.node[10].veinsmobility  speed  ETV
vector 39138  IntersectionExampleScenario.node[10].veinsmobility  acceleration  ETV
vector 39139  IntersectionExampleScenario.node[10].veinsmobility  co2emission  ETV
vector 39144  IntersectionExampleScenario.node[11].veinsmobility  speed  ETV
vector 39145  IntersectionExampleScenario.node[11].veinsmobility  acceleration  ETV
vector 39146  IntersectionExampleScenario.node[11].veinsmobility  co2emission  ETV
vector 39149  IntersectionExampleScenario.node[12].veinsmobility  posx  ETV
vector 39150  IntersectionExampleScenario.node[12].veinsmobility  posy  ETV
vector 39151  IntersectionExampleScenario.node[12].veinsmobility  speed  ETV
vector 39152  IntersectionExampleScenario.node[12].veinsmobility  acceleration  ETV
vector 39153  IntersectionExampleScenario.node[12].veinsmobility  co2emission  ETV
vector 39156  IntersectionExampleScenario.node[13].veinsmobility  posx  ETV
vector 39157  IntersectionExampleScenario.node[13].veinsmobility  posy  ETV
vector 39158  IntersectionExampleScenario.node[13].veinsmobility  speed  ETV
vector 39159  IntersectionExampleScenario.node[13].veinsmobility  acceleration  ETV
vector 39160  IntersectionExampleScenario.node[13].veinsmobility  co2emission  ETV
vector 39163  IntersectionExampleScenario.node[14].veinsmobility  posx  ETV
vector 39164  IntersectionExampleScenario.node[14].veinsmobility  posy  ETV
vector 39165  IntersectionExampleScenario.node[14].veinsmobility  speed  ETV
vector 39166  IntersectionExampleScenario.node[14].veinsmobility  acceleration  ETV
vector 39167  IntersectionExampleScenario.node[14].veinsmobility  co2emission  ETV
vector 39170  IntersectionExampleScenario.node[15].veinsmobility  posx  ETV
vector 39171  IntersectionExampleScenario.node[15].veinsmobility  posy  ETV
vector 39177  IntersectionExampleScenario.node[16].veinsmobility  posx  ETV
vector 39178  IntersectionExampleScenario.node[16].veinsmobility  posy  ETV
vector 39172  IntersectionExampleScenario.node[15].veinsmobility  speed  ETV
vector 39173  IntersectionExampleScenario.node[15].veinsmobility  acceleration  ETV
vector 39174  IntersectionExampleScenario.node[15].veinsmobility  co2emission  ETV
vector 39179  IntersectionExampleScenario.node[16].veinsmobility  speed  ETV
vector 39180  IntersectionExampleScenario.node[16].veinsmobility  acceleration  ETV
vector 39181  IntersectionExampleScenario.node[16].veinsmobility  co2emission  ETV
vector 39184  IntersectionExampleScenario.node[17].veinsmobility  posx  ETV
vector 39185  IntersectionExampleScenario.node[17].veinsmobility  posy  ETV
vector 39186  IntersectionExampleScenario.node[17].veinsmobility  speed  ETV
vector 39187  IntersectionExampleScenario.node[17].veinsmobility  acceleration  ETV
vector 39188  IntersectionExampleScenario.node[17].veinsmobility  co2emission  ETV
vector 39191  IntersectionExampleScenario.node[18].veinsmobility  posx  ETV
vector 39192  IntersectionExampleScenario.node[18].veinsmobility  posy  ETV
vector 39193  IntersectionExampleScenario.node[18].veinsmobility  speed  ETV
vector 39194  IntersectionExampleScenario.node[18].veinsmobility  acceleration  ETV
vector 39195  IntersectionExampleScenario.node[18].veinsmobility  co2emission  ETV
vector 39198  IntersectionExampleScenario.node[19].veinsmobility  posx  ETV
vector 39199  IntersectionExampleScenario.node[19].veinsmobility  posy  ETV
vector 39200  IntersectionExampleScenario.node[19].veinsmobility  speed  ETV
vector 39201  IntersectionExampleScenario.node[19].veinsmobility  acceleration  ETV
vector 39202  IntersectionExampleScenario.node[19].veinsmobility  co2emission  ETV
vector 39205  IntersectionExampleScenario.node[20].veinsmobility  posx  ETV
vector 39206  IntersectionExampleScenario.node[20].veinsmobility  posy  ETV
vector 39207  IntersectionExampleScenario.node[20].veinsmobility  speed  ETV
vector 39208  IntersectionExampleScenario.node[20].veinsmobility  acceleration  ETV
vector 39209  IntersectionExampleScenario.node[20].veinsmobility  co2emission  ETV
vector 39212  IntersectionExampleScenario.node[21].veinsmobility  posx  ETV
vector 39213  IntersectionExampleScenario.node[21].veinsmobility  posy  ETV
vector 39219  IntersectionExampleScenario.node[22].veinsmobility  posx  ETV
vector 39220  IntersectionExampleScenario.node[22].veinsmobility  posy  ETV
vector 39226  IntersectionExampleScenario.node[23].veinsmobility  posx  ETV
vector 39227  IntersectionExampleScenario.node[23].veinsmobility  posy  ETV
vector 39214  IntersectionExampleScenario.node[21].veinsmobility  speed  ETV
vector 39215  IntersectionExampleScenario.node[21].veinsmobility  acceleration  ETV
vector 39216  IntersectionExampleScenario.node[21].veinsmobility  co2emission  ETV
vector 39221  IntersectionExampleScenario.node[22].veinsmobility  speed  ETV
vector 39228  IntersectionExampleScenario.node[23].veinsmobility  speed  ETV
vector 39222  IntersectionExampleScenario.node[22].veinsmobility  acceleration  ETV
vector 39223  IntersectionExampleScenario.node[22].veinsmobility  co2emission  ETV
vector 39229  IntersectionExampleScenario.node[23].veinsmobility  acceleration  ETV
vector 39230  IntersectionExampleScenario.node[23].veinsmobility  co2emission  ETV
vector 39233  IntersectionExampleScenario.node[24].veinsmobility  posx  ETV
vector 39234  IntersectionExampleScenario.node[24].veinsmobility  posy  ETV
vector 39235  IntersectionExampleScenario.node[24].veinsmobility  speed  ETV
39076	12742 4737 43 3687 5.5 42.75 150 0.96333723109819 12.099024792222 483.67957891873 2736.7556920032
39075	17479 4405 43 3687 5.5 42.75 150 -3.4488220214844 2.5 40.208654403687 215.41585690974
39074	21884 4656 38 3687 5.25 42.75 151 5.6500000953674 16.27499961853 2211.3263587952 33126.279331206
39073	26540 4923 33 3687 5 42.75 152 486.85000610352 486.85000610352 74001.200927734 36027485.123335
39072	31463 4892 33 3687 5 42.75 152 238.3134765625 785.82187652588 79462.497550964 45556961.624971
vector 39236  IntersectionExampleScenario.node[24].veinsmobility  acceleration  ETV
vector 39237  IntersectionExampleScenario.node[24].veinsmobility  co2emission  ETV
vector 39240  IntersectionExampleScenario.node[25].veinsmobility  posx  ETV
vector 39241  IntersectionExampleScenario.node[25].veinsmobility  posy  ETV
vector 39242  IntersectionExampleScenario.node[25].veinsmobility  speed  ETV
vector 39243  IntersectionExampleScenario.node[25].veinsmobility  acceleration  ETV
vector 39244  IntersectionExampleScenario.node[25].veinsmobility  co2emission  ETV
39097	36925 4961 98 4288 7.25 46.5 158 0.973 11.810082123732 507.99310620607 2855.6579505063
39096	41886 4655 98 4288 7.25 46.5 158 -3.4376373291016 2.5 38.850629806519 284.11405286263
39095	46541 4858 87 4288 7 46.5 159 5.6500000953674 15.875 2176.8192710876 31183.809667693
39094	51399 5196 76 4288 6.75 46.5 160 238.64453125 483.14999389648 69305.658294678 30920764.77396
39093	56595 5180 76 4288 6.75 46.5 160 184.17810058594 483.14999389648 63546.552520752 26970383.904858
vector 39247  IntersectionExampleScenario.node[26].veinsmobility  posx  ETV
vector 39248  IntersectionExampleScenario.node[26].veinsmobility  posy  ETV
vector 39249  IntersectionExampleScenario.node[26].veinsmobility  speed  ETV
vector 39250  IntersectionExampleScenario.node[26].veinsmobility  acceleration  ETV
vector 39251  IntersectionExampleScenario.node[26].veinsmobility  co2emission  ETV
39111	62176 4972 230 4638 9.75 48.75 157 0.973 11.36141391502 485.76818803509 2576.9366633098
39110	67148 4579 230 4638 9.75 48.75 157 -3.4074153900146 2.5 36.98334312439 266.46665001743
39109	71727 4851 215 4638 9.5 48.75 158 5.6500000953674 15.25 2103.8873763084 29253.48346397
39108	76578 5197 200 4638 9.25 48.75 159 486.85000610352 733.86772155762 85822.994827271 47260666.210569
39107	81775 5192 200 4638 9.25 48.75 159 486.73275756836 765.39454650879 89696.706542969 52074508.762173
39090	86967 5567 98 5067 7.25 51.5 178 0.973 11.36141391502 550.29627094908 2882.3901509553
39089	92534 5103 98 5067 7.25 51.5 178 -4.5 2.5 36.813589096069 394.04355237847
39088	97637 5528 87 5067 7 51.5 179 5.6500000953674 15.25 2259.4531121254 30270.445703272
39087	103165 5859 76 5067 6.75 51.5 180 486.85000610352 732.75619506836 95990.899856567 52168900.899663
39086	109024 5856 76 5067 6.75 51.5 180 486.84643554688 805.05782318115 105817.67723083 64564427.911352
vector 39254  IntersectionExampleScenario.node[27].veinsmobility  posx  ETV
vector 39255  IntersectionExampleScenario.node[27].veinsmobility  posy  ETV
vector 39256  IntersectionExampleScenario.node[27].veinsmobility  speed  ETV
vector 39257  IntersectionExampleScenario.node[27].veinsmobility  acceleration  ETV
vector 39258  IntersectionExampleScenario.node[27].veinsmobility  co2emission  ETV
vector 39261  IntersectionExampleScenario.node[28].veinsmobility  posx  ETV
vector 39262  IntersectionExampleScenario.node[28].veinsmobility  posy  ETV
vector 39263  IntersectionExampleScenario.node[28].veinsmobility  speed  ETV
39118	115513 5119 549 5668 15 55.25 162 0.973 11.093806525473 454.87808438369 2215.2592272576
39117	120632 4962 549 5668 15 55.25 162 -3.0413360595703 2.5 34.437047958374 173.53717756298
39116	125594 5122 532 5668 14.75 55.25 163 5.6500000953674 14.875 2216.1326370239 30577.004893322
39115	130716 5363 515 5668 14.5 55.25 164 184.17810058594 733.30932617188 73775.333999634 37534481.153707
39114	136079 5387 515 5668 14.5 55.25 164 486.85000610352 486.85000610352 79843.401000977 38871760.264651
vector 39268  IntersectionExampleScenario.node[29].veinsmobility  posx  ETV
vector 39269  IntersectionExampleScenario.node[29].veinsmobility  posy  ETV
vector 39264  IntersectionExampleScenario.node[28].veinsmobility  acceleration  ETV
vector 39265  IntersectionExampleScenario.node[28].veinsmobility  co2emission  ETV
vector 39270  IntersectionExampleScenario.node[29].veinsmobility  speed  ETV
vector 39271  IntersectionExampleScenario.node[29].veinsmobility  acceleration  ETV
vector 39272  IntersectionExampleScenario.node[29].veinsmobility  co2emission  ETV
vector 39275  IntersectionExampleScenario.node[30].veinsmobility  posx  ETV
vector 39276  IntersectionExampleScenario.node[30].veinsmobility  posy  ETV
vector 39277  IntersectionExampleScenario.node[30].veinsmobility  speed  ETV
vector 39278  IntersectionExampleScenario.node[30].veinsmobility  acceleration  ETV
vector 39279  IntersectionExampleScenario.node[30].veinsmobility  co2emission  ETV
vector 39282  IntersectionExampleScenario.node[31].veinsmobility  posx  ETV
vector 39283  IntersectionExampleScenario.node[31].veinsmobility  posy  ETV
vector 39289  IntersectionExampleScenario.node[32].veinsmobility  posx  ETV
vector 39290  IntersectionExampleScenario.node[32].veinsmobility  posy  ETV
vector 39284  IntersectionExampleScenario.node[31].veinsmobility  speed  ETV
vector 39285  IntersectionExampleScenario.node[31].veinsmobility  acceleration  ETV
vector 39286  IntersectionExampleScenario.node[31].veinsmobility  co2emission  ETV
vector 39291  IntersectionExampleScenario.node[32].veinsmobility  speed  ETV
vector 39292  IntersectionExampleScenario.node[32].veinsmobility  acceleration  ETV
vector 39293  IntersectionExampleScenario.node[32].veinsmobility  co2emission  ETV
vector 39296  IntersectionExampleScenario.node[33].veinsmobility  posx  ETV
vector 39297  IntersectionExampleScenario.node[33].veinsmobility  posy  ETV
vector 39298  IntersectionExampleScenario.node[33].veinsmobility  speed  ETV
vector 39299  IntersectionExampleScenario.node[33].veinsmobility  acceleration  ETV
vector 39300  IntersectionExampleScenario.node[33].veinsmobility  co2emission  ETV
39146	143640 4846 1087 6287 21.5 58.75 150 0.973 11.093806525473 489.81831168844 2393.0299906482
39145	148486 4727 1087 6287 21.5 58.75 150 -3.3015251159668 2.5 41.396924972534 188.25301740878
39144	153213 4763 1062 6287 21.25 58.75 151 5.6500000953674 16.120988845825 2214.9749650955 33256.312200128
39143	157976 4987 1037 6287 21 58.75 152 184.17810058594 732.50187683105 67791.985717773 34266052.520642
39142	162963 5016 1037 6287 21 58.75 152 486.85000610352 486.85000610352 74001.200927734 36027485.123335
39069	167979 6538 21 6742 4 61.25 230 0.973 12.353032912318 632.55266016416 3431.0946883112
39068	174517 6000 21 6742 4 61.25 230 -7.2935891151428 4 42.245687484741 507.90011966374
39067	180517 6248 18 6742 3.75 61.25 231 0 16.625 2204.0105291605 32877.220147064
39066	186765 7534 15 6742 3.5 61.25 232 239.01220703125 785.82187652588 119482.72638702 65488966.971592
39065	194299 7545 15 6742 3.5 61.25 232 483.14999389648 483.14999389648 112090.79858398 54156668.651704
39083	201844 7105 62 7116 6.25 63.5 230 0.973 11.810082123732 615.57469864698 3095.0647183322
39082	208949 6923 62 7116 6.25 63.5 230 -4.5 2.5000004768372 39.869146347046 446.07660442016
39081	215872 7228 55 7116 6 63.5 231 0 15.875 2257.2259025993 31912.593100239
39080	223100 7549 48 7116 5.75 63.5 232 486.85000610352 802.70781707764 129386.02807617 74398822.310662
39079	230649 7570 48 7116 5.75 63.5 232 235.58032226562 483.14999389648 104014.77365112 47680995.726317
vector 39303  IntersectionExampleScenario.node[34].veinsmobility  posx  ETV
vector 39304  IntersectionExampleScenario.node[34].veinsmobility  posy  ETV
vector 39310  IntersectionExampleScenario.node[35].veinsmobility  posx  ETV
vector 39311  IntersectionExampleScenario.node[35].veinsmobility  posy  ETV
vector 39305  IntersectionExampleScenario.node[34].veinsmobility  speed  ETV
vector 39306  IntersectionExampleScenario.node[34].veinsmobility  acceleration  ETV
vector 39307  IntersectionExampleScenario.node[34].veinsmobility  co2emission  ETV
vector 39312  IntersectionExampleScenario.node[35].veinsmobility  speed  ETV
vector 39317  IntersectionExampleScenario.node[36].veinsmobility  posx  ETV
vector 39318  IntersectionExampleScenario.node[36].veinsmobility  posy  ETV
vector 39313  IntersectionExampleScenario.node[35].veinsmobility  acceleration  ETV
vector 39314  IntersectionExampleScenario.node[35].veinsmobility  co2emission  ETV
vector 39319  IntersectionExampleScenario.node[36].veinsmobility  speed  ETV
vector 39320  IntersectionExampleScenario.node[36].veinsmobility  acceleration  ETV
vector 39321  IntersectionExampleScenario.node[36].veinsmobility  co2emission  ETV
39104	239422 7493 135 8507 8 72.25 258 0.973 11.00486315618 625.50524978749 2742.5573332934
39103	246915 7254 135 8507 8 72.25 258 -9.273078918457 4 43.427785873413 516.80593222507
39102	254169 7320 122 8507 7.75 72.25 259 0 14.75 2327.873565197 29929.998888143
39101	261489 8495 109 8507 7.5 72.25 260 237.86633300781 486.85000610352 117631.51867676 54399627.28975
39100	269984 8501 109 8507 7.5 72.25 260 483.14999389648 818.65703582764 147996.2057724 87551199.666948
39125	278485 7115 638 8577 16.25 72.75 227 0.973 11.093806525473 586.85599149668 2664.4113636558
39124	285600 6857 638 8577 16.25 72.75 227 -4.5 2.5000002384186 36.134572982788 419.63328239417
39123	292457 7354 619 8577 16 72.75 228 0 14.875 2250.707058005 30579.760694927
39122	299811 7538 600 8577 15.75 72.75 229 486.85000610352 486.85000610352 111488.65139771 54278250.613445
39121	307349 7514 600 8577 15.75 72.75 229 237.90270996094 796.13786315918 119215.92973328 66551244.967712
39132	314863 6664 699 8716 17 73.75 228 0.973 11.648172402475 608.30397444668 2933.6348346899
39131	321527 6453 699 8716 17 73.75 228 -9.0028915405273 4 39.869146347046 520.56896182135
39130	327980 6349 678 8716 16.75 73.75 229 0 15.775814056396 2171.9139411449 31083.709350744
39129	334329 7564 657 8716 16.5 73.75 230 238.84045410156 483.14999389648 103225.51983643 47335776.173921
39128	341893 7542 657 8716 16.5 73.75 230 184.17810058594 483.24322509766 96641.772491455 42599802.340977
39153	349435 6339 1241 9012 23 76 213 0.973 11.200708441096 566.62374424981 2637.3769516596
39152	355774 6760 1241 9012 23 76 213 -4.5 2.5000019073486 37.492597579956 332.78166727253
39151	362534 7028 1214 9012 22.75 76 214 0 15.071798324585 2206.2539208531 28319.749468753
39150	369562 7083 1187 9012 22.5 76 215 237.03070068359 486.85000610352 96147.166168213 44075519.549791
39149	376645 7077 1187 9012 22.5 76 215 483.01388549805 785.82187652588 120373.77294159 69300084.473492
39167	383722 6152 1664 9074 26.75 76.5 200 0.973 11.200708441096 574.20631686189 2794.3534466197
39166	389874 6244 1664 9074 26.75 76.5 200 -4.5 2.5000019073486 39.869146347046 369.0070549386
39165	396118 6431 1633 9074 26.5 76.5 201 1.711205124855 15.672729492188 2250.9263876677 30393.547786908
39164	402549 6667 1602 9074 26.25 76.5 202 486.85000610352 486.85000610352 98343.70123291 47878631.545484
39163	409216 6619 1602 9074 26.25 76.5 202 236.2734375 793.78281402588 106478.00685883 60405954.129139
vector 39324  IntersectionExampleScenario.node[37].veinsmobility  posx  ETV
vector 39325  IntersectionExampleScenario.node[37].veinsmobility  posy  ETV
vector 39326  IntersectionExampleScenario.node[37].veinsmobility  speed  ETV
vector 39327  IntersectionExampleScenario.node[37].veinsmobility  acceleration  ETV
vector 39328  IntersectionExampleScenario.node[37].veinsmobility  co2emission  ETV
39139	416236 7077 1062 9332 21.25 78.5 230 0.973 11.648172402475 609.36094851815 2998.829232268
39138	423313 7187 1062 9332 21.25 78.5 230 -20.926937103271 4 38.511121749878 866.08061403553
39137	430500 7381 1037 9332 21 78.5 231 0 15.64999961853 2198.8475026637 29990.085946705
39136	437881 7634 1014 9332 20.75 78.5 232 236.29248046875 483.14999389648 103886.21826172 47574011.170762
39135	445515 7627 1014 9332 20.75 78.5 232 179.81719970703 483.41857910156 96484.176147461 42153357.587371
39174	453142 6162 2107 9695 30.5 81.25 204 0.973 11.36141391502 556.75252406041 2753.6899052923
39173	459304 6351 2107 9695 30.5 81.25 204 -3.0611114501953 2.5 37.32285118103 326.27705383357
39172	465655 6510 2076 9695 30.25 81.25 205 1.9514975547791 15.25 2188.3854522705 28101.362769403
39171	472165 6789 2046 9695 30 81.25 206 235.6640625 483.14999389648 91131.17401123 41354271.541448
39170	478954 6757 2046 9695 30 81.25 206 184.17810058594 483.14999389648 83922.536407471 36042199.372264
39223	485711 5329 3412 9992 41 83.5 171 0.973 11.422686434133 552.45540611172 3134.7247976757
39222	491040 5291 3412 9992 41 83.5 171 -4.5 2.5 36.474081039429 356.43545227999
39221	496331 5656 3373 9992 40.75 83.5 172 5.6500000953674 15.335629463196 2206.9767727852 29802.884348493
39220	501987 5702 3334 9992 40.5 83.5 173 236.16821289062 486.85000610352 75393.779296875 33864299.256866
39219	507689 5702 3334 9992 40.5 83.5 173 483.13442993164 785.82187652588 98256.220756531 57664416.973843
vector 39331  IntersectionExampleScenario.node[38].veinsmobility  posx  ETV
vector 39332  IntersectionExampleScenario.node[38].veinsmobility  posy  ETV
vector 39333  IntersectionExampleScenario.node[38].veinsmobility  speed  ETV
39181	513623 6707 2138 10159 30.75 84.75 217 0.973 11.237784995764 599.45432460619 2776.392856612
39180	520330 7107 2138 10159 30.75 84.75 217 -4.5 2.5 38.905725479126 426.27031006155
39179	527437 7180 2107 10159 30.5 84.75 218 1.8217077255249 15.519176483154 2275.3105752468 28642.730203172
39178	534617 7223 2076 10159 30.25 84.75 219 238.41625976562 483.14999389648 97460.2527771 44394667.231725
39177	541840 7208 2076 10159 30.25 84.75 219 159.76721191406 483.21368408203 87357.488037109 37209707.03804
vector 39334  IntersectionExampleScenario.node[38].veinsmobility  acceleration  ETV
vector 39335  IntersectionExampleScenario.node[38].veinsmobility  co2emission  ETV
39160	549217 7028 1515 10194 25.5 85 239 0.973 11.200708441096 587.03851677358 2681.4154500178
39159	556245 6279 1515 10194 25.5 85 239 -9.0729541778564 4 35.455564498901 475.96540136489
39158	562524 6708 1486 10194 25.25 85 240 0 15.02499961853 2205.810532093 29829.523672697
39157	569232 7925 1457 10194 25 85 241 177.97814941406 483.36395263672 100781.30981445 44316089.062785
39156	577157 7891 1457 10194 25 85 241 486.85000610352 734.4461517334 125989.9995575 66980630.735018
39188	585048 6039 2668 10264 35.25 85.5 202 0.973 11.648172402475 558.20456217789 2894.8342618419
39187	591087 6333 2668 10264 35.25 85.5 202 -3.8612093925476 2.5000019073486 38.341367721558 338.23159468353
39186	597420 6537 2639 10264 35 85.5 203 0 15.64999961853 2218.6930494234 29702.961616862
39185	603957 6705 2610 10264 34.75 85.5 204 184.17810058594 734.0129699707 91722.730499268 45410861.737489
39184	610662 6740 2610 10264 34.75 85.5 204 486.85000610352 486.85000610352 99317.401245117 48352677.40237
vector 39338  IntersectionExampleScenario.node[39].veinsmobility  posx  ETV
vector 39339  IntersectionExampleScenario.node[39].veinsmobility  posy  ETV
vector 39340  IntersectionExampleScenario.node[39].veinsmobility  speed  ETV
vector 39341  IntersectionExampleScenario.node[39].veinsmobility  acceleration  ETV
vector 39342  IntersectionExampleScenario.node[39].veinsmobility  co2emission  ETV
39209	617803 5809 3233 10479 39.75 87 190 0.973 11.648172402475 561.56974789753 2871.7428229049
39208	623612 5848 3233 10479 39.75 87 190 -4.5 2.5000009536743 39.869146347046 392.91507262971
39207	629460 6156 3200 10479 39.5 87 191 1.8619873523712 15.64999961853 2116.6591618061 28444.167996367
39206	635616 6328 3167 10479 39.25 87 192 208.84918212891 733.51382446289 87419.875823975 43395716.012261
39205	641944 6350 3167 10479 39.25 87 192 486.84997558594 486.85000610352 93475.201141357 45508402.23134
vector 39345  IntersectionExampleScenario.node[40].veinsmobility  posx  ETV
vector 39346  IntersectionExampleScenario.node[40].veinsmobility  posy  ETV
vector 39347  IntersectionExampleScenario.node[40].veinsmobility  speed  ETV
vector 39348  IntersectionExampleScenario.node[40].veinsmobility  acceleration  ETV
vector 39349  IntersectionExampleScenario.node[40].veinsmobility  co2emission  ETV
vector 39352  IntersectionExampleScenario.node[41].veinsmobility  posx  ETV
vector 39353  IntersectionExampleScenario.node[41].veinsmobility  posy  ETV
vector 39359  IntersectionExampleScenario.node[42].veinsmobility  posx  ETV
vector 39360  IntersectionExampleScenario.node[42].veinsmobility  posy  ETV
vector 39354  IntersectionExampleScenario.node[41].veinsmobility  speed  ETV
39202	649081 6526 2943 10905 37.5 90.25 212 0.973 10.916047529558 612.75084278099 3014.2026350927
39201	655607 6153 2943 10905 37.5 90.25 212 -4.5 2.5 38.511121749878 477.83303706666
39200	661760 6715 2910 10905 37.25 90.25 213 0 15.414560317993 2252.9403191209 28424.697509788
39199	668475 7061 2877 10905 37 90.25 214 167.29217529297 483.14999389648 84340.516357422 35526101.432568
39198	675536 7082 2877 10905 37 90.25 214 486.85000610352 733.49577331543 112389.45397949 60053453.58077
vector 39355  IntersectionExampleScenario.node[41].veinsmobility  acceleration  ETV
vector 39356  IntersectionExampleScenario.node[41].veinsmobility  co2emission  ETV
vector 39361  IntersectionExampleScenario.node[42].veinsmobility  speed  ETV
vector 39362  IntersectionExampleScenario.node[42].veinsmobility  acceleration  ETV
vector 39363  IntersectionExampleScenario.node[42].veinsmobility  co2emission  ETV
39216	683034 6504 3373 11196 40.75 92.5 208 0.973 11.219784749119 575.88905384237 2822.1444819101
39215	689538 6413 3373 11196 40.75 92.5 208 -4.5 2.5 37.662351608276 342.9133463949
39214	695951 6629 3334 11196 40.5 92.5 209 2.1880202293396 15.454586029053 2263.991004467 28565.768493914
39213	702580 6958 3299 11196 40.25 92.5 210 163.39672851562 483.14999389648 83024.308288574 34994826.459339
39212	709538 6955 3299 11196 40.25 92.5 210 486.85000610352 731.90678405762 110437.52420044 59092812.326061
vector 39366  IntersectionExampleScenario.node[43].veinsmobility  posx  ETV
vector 39367  IntersectionExampleScenario.node[43].veinsmobility  posy  ETV
vector 39368  IntersectionExampleScenario.node[43].veinsmobility  speed  ETV
vector 39369  IntersectionExampleScenario.node[43].veinsmobility  acceleration  ETV
vector 39370  IntersectionExampleScenario.node[43].veinsmobility  co2emission  ETV
vector 39373  IntersectionExampleScenario.node[44].veinsmobility  posx  ETV
vector 39374  IntersectionExampleScenario.node[44].veinsmobility  posy  ETV
vector 39375  IntersectionExampleScenario.node[44].veinsmobility  speed  ETV
vector 39376  IntersectionExampleScenario.node[44].veinsmobility  acceleration  ETV
vector 39377  IntersectionExampleScenario.node[44].veinsmobility  co2emission  ETV
vector 39380  IntersectionExampleScenario.node[45].veinsmobility  posx  ETV
vector 39381  IntersectionExampleScenario.node[45].veinsmobility  posy  ETV
vector 39382  IntersectionExampleScenario.node[45].veinsmobility  speed  ETV
vector 39383  IntersectionExampleScenario.node[45].veinsmobility  acceleration  ETV
vector 39384  IntersectionExampleScenario.node[45].veinsmobility  co2emission  ETV
39195	717696 7691 2846 12282 36.75 103.25 267 0.973 11.648172402475 646.54448280566 3149.04801389
39194	725387 7382 2846 12282 36.75 103.25 267 -7.6324892044067 4 38.511121749878 531.21100828717
39193	732769 7738 2815 12282 36.5 103.25 268 0 15.64999961853 2243.0378975868 29709.911835063
39192	740507 8971 2784 12282 36.25 103.25 269 483.14999389648 483.14999389648 129967.34835815 62793723.565984
39191	749478 8948 2784 12282 36.25 103.25 269 177.46667480469 733.9766998291 121663.54756165 59380816.753168
vector 39387  IntersectionExampleScenario.node[46].veinsmobility  posx  ETV
vector 39388  IntersectionExampleScenario.node[46].veinsmobility  posy  ETV
39237	758580 7248 3728 12305 43 103.5 243 0.973 11.36141391502 630.10147784161 2981.1256199405
39236	765828 6578 3728 12305 43 103.5 243 -13.924362182617 4 37.32285118103 676.18072491527
39235	772406 6846 3687 12305 42.75 103.5 244 0 15.25 2254.4106674194 31196.496994554
39234	779252 8116 3646 12305 42.5 103.5 245 486.85000610352 733.68672180176 127629.07571411 67572543.016443
39233	787368 8171 3646 12305 42.5 103.5 245 486.63604736328 803.92188262939 135848.70708466 77711452.961854
vector 39389  IntersectionExampleScenario.node[46].veinsmobility  speed  ETV
vector 39390  IntersectionExampleScenario.node[46].veinsmobility  acceleration  ETV
vector 39391  IntersectionExampleScenario.node[46].veinsmobility  co2emission  ETV
39230	795786 7297 3412 12355 41 104 253 0.973 12.26218747632 644.96267009125 3356.6102264737
39229	803083 7167 3412 12355 41 104 253 -4.1962747573853 2.5 41.396924972534 427.90874342663
39228	810250 7277 3373 12355 40.75 104 254 0 16.5 2208.8690258125 29687.6453002
39227	817527 8506 3334 12355 40.5 104 255 238.51293945312 483.14999389648 115494.03237915 53328256.674817
39226	826033 8503 3334 12355 40.5 104 255 176.46142578125 483.14999389648 106388.20544434 46481280.765354
39244	834536 7219 4125 12496 45.5 105.5 241 0.973 11.36141391502 614.79885565967 2868.7088643008
39243	841755 6601 4125 12496 45.5 105.5 241 -4.5 2.5 38.850629806519 459.99582859927
39242	848356 6996 4084 12496 45.25 105.5 242 0 15.387921333313 2288.9941469729 32321.868092219
39241	855352 8121 4043 12496 45 105.5 243 486.85000610352 735.17135620117 126562.977005 66999870.266394
39240	863473 8119 4043 12496 45 105.5 243 486.85000610352 810.46563720703 135593.35966492 78104839.361846
39265	871592 6199 5710 12565 55.5 106.25 204 0.973 11.648172402475 570.7668225439 2941.5009819219
39264	877791 6399 5710 12565 55.5 106.25 204 -3.943576335907 2.5000019073486 39.699392318726 347.98146571985
39263	884190 6664 5668 12565 55.25 106.25 205 0 15.64999961853 2217.7384467423 30004.612386042
39262	890854 6914 5625 12565 55 106.25 206 483.14999389648 483.14999389648 99528.898742676 48087386.820047
39261	897768 6868 5625 12565 55 106.25 206 184.17810058594 733.35255432129 92173.499343872 45339855.520422
vector 39394  IntersectionExampleScenario.node[47].veinsmobility  posx  ETV
vector 39395  IntersectionExampleScenario.node[47].veinsmobility  posy  ETV
vector 39396  IntersectionExampleScenario.node[47].veinsmobility  speed  ETV
vector 39397  IntersectionExampleScenario.node[47].veinsmobility  acceleration  ETV
vector 39398  IntersectionExampleScenario.node[47].veinsmobility  co2emission  ETV
39258	905037 6524 5461 12677 54 107.5 215 0.973 11.810082123732 588.21132091241 3055.2373982463
39257	911561 6626 5461 12677 54 107.5 215 -3.987185716629 2.5 40.887662887573 343.04766732558
39256	918187 6912 5420 12677 53.75 107.5 216 0 15.942442893982 2190.3772672266 29470.970887477
39255	925099 7265 5379 12677 53.5 107.5 217 486.85000610352 734.4835357666 113618.86732483 60505806.182733
39254	932364 7274 5379 12677 53.5 107.5 217 486.84432983398 785.82187652588 121281.52701569 69625472.964057
vector 39401  IntersectionExampleScenario.node[48].veinsmobility  posx  ETV
vector 39402  IntersectionExampleScenario.node[48].veinsmobility  posy  ETV
vector 39403  IntersectionExampleScenario.node[48].veinsmobility  speed  ETV
vector 39404  IntersectionExampleScenario.node[48].veinsmobility  acceleration  ETV
vector 39405  IntersectionExampleScenario.node[48].veinsmobility  co2emission  ETV
39286	940039 6519 6103 12873 57.75 109.5 208 0.973 11.200708441096 555.07673146111 2637.1597643275
39285	946558 6679 6103 12873 57.75 109.5 208 -4.5 2.5000019073486 35.795072555542 342.38663364586
39284	953237 6859 6057 12873 57.5 109.5 209 2.6386728286743 15.02499961853 2289.3234288692 29398.800149853
39283	960096 7074 6012 12873 57.25 109.5 210 483.14999389648 483.14999389648 101461.49871826 49021122.486456
39282	967170 7043 6012 12873 57.25 109.5 210 167.29217529297 734.90336608887 92434.0337677 45402971.722265
vector 39408  IntersectionExampleScenario.node[49].veinsmobility  posx  ETV
vector 39409  IntersectionExampleScenario.node[49].veinsmobility  posy  ETV
39300	974367 6328 6287 12898 58.75 109.75 205 0.973 11.648172402475 562.83421446966 2934.1152659916
39299	980695 6328 6287 12898 58.75 109.75 205 -4.5 2.5 38.511121749878 401.11937210018
39298	987023 6656 6240 12898 58.5 109.75 206 1.5153023004532 15.64999961853 2101.1512356997 27066.874715032
39297	993679 6972 6193 12898 58.25 109.75 207 236.80004882812 486.85000610352 92385.269073486 42289296.409882
39296	1000651 6969 6193 12898 58.25 109.75 207 483.14999389648 759.09532165527 114735.24784088 65042822.117137
vector 39415  IntersectionExampleScenario.node[50].veinsmobility  posx  ETV
vector 39416  IntersectionExampleScenario.node[50].veinsmobility  posy  ETV
vector 39410  IntersectionExampleScenario.node[49].veinsmobility  speed  ETV
vector 39411  IntersectionExampleScenario.node[49].veinsmobility  acceleration  ETV
vector 39412  IntersectionExampleScenario.node[49].veinsmobility  co2emission  ETV
vector 39417  IntersectionExampleScenario.node[50].veinsmobility  speed  ETV
vector 39418  IntersectionExampleScenario.node[50].veinsmobility  acceleration  ETV
vector 39419  IntersectionExampleScenario.node[50].veinsmobility  co2emission  ETV
39307	1008268 5594 7363 13012 65 110.75 184 0.973 11.810082123732 565.35244671255 3109.7298894455
39306	1013862 5925 7363 13012 65 110.75 184 -2.9384651184082 2.5 43.049718856812 313.54587732007
39305	1019787 5918 7320 13012 64.75 110.75 185 3.7181515693665 16.502756118774 2180.5841305256 29259.400931356
39304	1025705 6283 7279 13012 64.5 110.75 186 238.54681396484 483.14999389648 82267.494049072 37306232.899796
39303	1031988 6269 7279 13012 64.5 110.75 186 184.17810058594 483.3037109375 74594.651489258 31667806.579334
vector 39422  IntersectionExampleScenario.node[51].veinsmobility  posx  ETV
vector 39423  IntersectionExampleScenario.node[51].veinsmobility  posy  ETV
vector 39424  IntersectionExampleScenario.node[51].veinsmobility  speed  ETV
vector 39425  IntersectionExampleScenario.node[51].veinsmobility  acceleration  ETV
vector 39426  IntersectionExampleScenario.node[51].veinsmobility  co2emission  ETV
vector 39429  IntersectionExampleScenario.node[52].veinsmobility  posx  ETV
vector 39430  IntersectionExampleScenario.node[52].veinsmobility  posy  ETV
vector 39431  IntersectionExampleScenario.node[52].veinsmobility  speed  ETV
vector 39432  IntersectionExampleScenario.node[52].veinsmobility  acceleration  ETV
vector 39433  IntersectionExampleScenario.node[52].veinsmobility  co2emission  ETV
39272	1039059 7061 5796 13197 56 112.25 226 0.973 11.093806525473 608.40389798689 2920.1991622828
39271	1046120 7177 5796 13197 56 112.25 226 -4.5 2.5000019073486 34.606801986694 443.8170923981
39270	1053297 7422 5753 13197 55.75 112.25 227 1.8540805578232 14.875 2283.0691571236 27583.33309527
39269	1060719 7689 5710 13197 55.5 112.25 228 486.85000610352 486.85000610352 111001.8013916 54041227.685002
39268	1068408 7665 5710 13197 55.5 112.25 228 237.40228271484 803.92188262939 123050.64698029 71513551.641216
vector 39436  IntersectionExampleScenario.node[53].veinsmobility  posx  ETV
vector 39437  IntersectionExampleScenario.node[53].veinsmobility  posy  ETV
vector 39438  IntersectionExampleScenario.node[53].veinsmobility  speed  ETV
vector 39443  IntersectionExampleScenario.node[54].veinsmobility  posx  ETV
vector 39444  IntersectionExampleScenario.node[54].veinsmobility  posy  ETV
vector 39439  IntersectionExampleScenario.node[53].veinsmobility  acceleration  ETV
vector 39440  IntersectionExampleScenario.node[53].veinsmobility  co2emission  ETV
vector 39445  IntersectionExampleScenario.node[54].veinsmobility  speed  ETV
vector 39446  IntersectionExampleScenario.node[54].veinsmobility  acceleration  ETV
vector 39447  IntersectionExampleScenario.node[54].veinsmobility  co2emission  ETV
39279	1076875 7488 5926 13594 56.75 115.25 235 0.973 10.363573802613 591.79034565005 2438.2868641415
39278	1084363 7497 5926 13594 56.75 115.25 235 -4.5 2.5 36.836603164673 363.85827990626
39277	1091860 7776 5883 13594 56.5 115.25 236 1.5757340192795 14.320108413696 2347.1235409975 27728.862763556
39276	1099636 8011 5839 13594 56.25 115.25 237 486.85000610352 486.85000610352 115383.45144653 56174434.040989
39275	1107647 7994 5839 13594 56.25 115.25 237 235.29943847656 817.87032318115 129931.99222565 76993069.685084
39251	1115641 7909 4482 13759 47.75 116.5 276 0.973 11.450879080643 652.3397882039 3097.839084367
39250	1123550 7598 4482 13759 47.75 116.5 276 -22.272796630859 4 37.32285118103 932.32438117303
39249	1131148 7881 4443 13759 47.5 116.5 277 0 15.375 2213.1497163773 28308.55169264
39248	1139029 9343 4404 13759 47.25 116.5 278 184.17810058594 733.81198120117 126053.04060364 61466399.090906
39247	1148372 9374 4404 13759 47.25 116.5 278 486.85000610352 486.85000610352 135344.30169678 65892374.107152
vector 39450  IntersectionExampleScenario.node[55].veinsmobility  posx  ETV
vector 39451  IntersectionExampleScenario.node[55].veinsmobility  posy  ETV
vector 39452  IntersectionExampleScenario.node[55].veinsmobility  speed  ETV
39293	1157978 7597 6148 13992 58 118.25 242 0.973 11.36141391502 606.91855053241 3068.269827248
39292	1165575 7924 6148 13992 58 118.25 242 -4.2725143432617 2.5000001192093 36.304327011108 410.80814234437
39291	1173499 7913 6103 13992 57.75 118.25 243 0 15.25 2187.5637584832 29048.361441652
39290	1181412 8231 6057 13992 57.5 118.25 244 184.17810058594 483.14999389648 102103.64395142 44728304.612831
39289	1189643 8255 6057 13992 57.5 118.25 244 486.85000610352 734.26593017578 127311.36231995 67532716.978114
vector 39453  IntersectionExampleScenario.node[55].veinsmobility  acceleration  ETV
vector 39454  IntersectionExampleScenario.node[55].veinsmobility  co2emission  ETV
vector 39457  IntersectionExampleScenario.node[56].veinsmobility  posx  ETV
vector 39458  IntersectionExampleScenario.node[56].veinsmobility  posy  ETV
vector 39459  IntersectionExampleScenario.node[56].veinsmobility  speed  ETV
vector 39460  IntersectionExampleScenario.node[56].veinsmobility  acceleration  ETV
vector 39461  IntersectionExampleScenario.node[56].veinsmobility  co2emission  ETV
39314	1198468 6943 7406 14386 65.25 121.25 225 0.973 11.200708441096 556.51019647098 2622.1621316143
39313	1205411 7200 7406 14386 65.25 121.25 225 -3.797043800354 2.5000019073486 35.285810470581 317.84882694217
39312	1212611 7366 7363 14386 65 121.25 226 0 15.02499961853 2205.0827046279 27876.108931502
39311	1219977 7696 7320 14386 64.75 121.25 227 184.17810058594 486.85638427734 93503.316131592 40461207.074545
39310	1227673 7705 7320 14386 64.75 121.25 227 237.28979492188 486.85000610352 101719.28842163 46704176.997051
vector 39464  IntersectionExampleScenario.node[57].veinsmobility  posx  ETV
vector 39465  IntersectionExampleScenario.node[57].veinsmobility  posy  ETV
vector 39466  IntersectionExampleScenario.node[57].veinsmobility  speed  ETV
vector 39471  IntersectionExampleScenario.node[58].veinsmobility  posx  ETV
vector 39472  IntersectionExampleScenario.node[58].veinsmobility  posy  ETV
vector 39467  IntersectionExampleScenario.node[57].veinsmobility  acceleration  ETV
vector 39468  IntersectionExampleScenario.node[57].veinsmobility  co2emission  ETV
39321	1235933 7234 7496 14483 65.75 122 226 0.973 11.54047740176 620.48412242809 2924.5446921851
39320	1243167 7086 7496 14483 65.75 122 226 -4.5 2.5 39.869146347046 463.94476328412
39319	1250253 7482 7451 14483 65.5 122 227 0 15.644682884216 2316.7148243375 31070.592939665
39318	1257735 7725 7406 14483 65.25 122 228 160.43438720703 734.26921081543 99456.963851929 48091561.582868
39317	1265460 7767 7406 14483 65.25 122 228 486.84997558594 486.85000610352 111001.80136108 54041227.655287
vector 39473  IntersectionExampleScenario.node[58].veinsmobility  speed  ETV
vector 39474  IntersectionExampleScenario.node[58].veinsmobility  acceleration  ETV
vector 39475  IntersectionExampleScenario.node[58].veinsmobility  co2emission  ETV
vector 39478  IntersectionExampleScenario.node[59].veinsmobility  posx  ETV
vector 39479  IntersectionExampleScenario.node[59].veinsmobility  posy  ETV
vector 39480  IntersectionExampleScenario.node[59].veinsmobility  speed  ETV
39356	1273706 4923 10940 15093 90.5 126.75 146 0.96997852711604 12.553400930962 500.07528890332 3042.5637318576
39355	1278629 4646 10940 15093 90.5 126.75 146 -3.3901748657227 2.5 42.585195541382 233.38480792026
39354	1283275 4850 10905 15093 90.25 126.75 147 5.6500000953674 16.89999961853 2210.9946155548 34146.538812555
39353	1288125 5119 10872 15093 90 126.75 148 238.52563476562 785.82187652588 77508.962394714 44501060.880312
39352	1293244 5140 10872 15093 90 126.75 148 483.14999389648 483.14999389648 71506.19909668 34548219.657121
vector 39481  IntersectionExampleScenario.node[59].veinsmobility  acceleration  ETV
vector 39482  IntersectionExampleScenario.node[59].veinsmobility  co2emission  ETV
vector 39485  IntersectionExampleScenario.node[60].veinsmobility  posx  ETV
vector 39486  IntersectionExampleScenario.node[60].veinsmobility  posy  ETV
vector 39487  IntersectionExampleScenario.node[60].veinsmobility  speed  ETV
vector 39488  IntersectionExampleScenario.node[60].veinsmobility  acceleration  ETV
vector 39489  IntersectionExampleScenario.node[60].veinsmobility  co2emission  ETV
39363	1298954 5368 10974 15522 90.75 130.25 159 0.973 11.990504229548 500.0471417738 2703.6793184562
39362	1304322 5145 10974 15522 90.75 130.25 159 -4.5 2.5 40.038900375366 219.27634432278
39361	1309467 5336 10940 15522 90.5 130.25 160 5.6500000953674 16.125 2310.4506225586 34149.319719396
39360	1314803 5561 10905 15522 90.25 130.25 161 238.22387695312 810.23281097412 86283.101089478 50864237.931078
39359	1320364 5597 10905 15522 90.25 130.25 161 483.14999389648 483.14999389648 77787.149017334 37582860.57295
vector 39492  IntersectionExampleScenario.node[61].veinsmobility  posx  ETV
vector 39493  IntersectionExampleScenario.node[61].veinsmobility  posy  ETV
vector 39494  IntersectionExampleScenario.node[61].veinsmobility  speed  ETV
vector 39495  IntersectionExampleScenario.node[61].veinsmobility  acceleration  ETV
vector 39496  IntersectionExampleScenario.node[61].veinsmobility  co2emission  ETV
vector 39499  IntersectionExampleScenario.node[62].veinsmobility  posx  ETV
vector 39500  IntersectionExampleScenario.node[62].veinsmobility  posy  ETV
vector 39501  IntersectionExampleScenario.node[62].veinsmobility  speed  ETV
vector 39502  IntersectionExampleScenario.node[62].veinsmobility  acceleration  ETV
vector 39503  IntersectionExampleScenario.node[62].veinsmobility  co2emission  ETV
39328	1326763 7180 9233 16145 77.75 135.5 232 0.973 11.36141391502 594.47767121664 2842.9809255698
39327	1333943 6711 9233 16145 77.75 135.5 232 -9.1757526397705 4 37.32285118103 536.85729382957
39326	1340654 6808 9200 16145 77.5 135.5 233 0 15.25 2178.7079701424 30373.206391256
39325	1347462 8009 9167 16145 77.25 135.5 234 236.31317138672 483.14999389648 104706.27111816 47924861.127418
39324	1355471 8046 9167 16145 77.25 135.5 234 184.17810058594 483.36395263672 98251.378143311 43281884.952491
39342	1363517 6342 10408 16145 86.5 135.5 197 0.973 11.450879080643 557.83536947008 2813.5338833342
39341	1369859 5884 10408 16145 86.5 135.5 197 -6.7711477279663 4 36.98334312439 456.08212473492
39340	1375743 6236 10371 16145 86.25 135.5 198 0 15.375 2209.3353545666 30725.485793837
39339	1381979 6908 10334 16145 86 135.5 199 486.85000610352 486.85000610352 96883.1512146 47167562.760155
39338	1388887 6901 10334 16145 86 135.5 199 237.32635498047 785.82187652588 102846.25605011 57365492.373625
39335	1395788 6694 10194 16380 85 137.5 211 0.973 11.00486315618 538.78305608571 2506.7891362341
39334	1402482 6865 10194 16380 85 137.5 211 -3.8713331222534 2.5000019073486 34.606801986694 311.82822310126
39333	1409347 7127 10159 16380 84.75 137.5 212 0 14.75 2203.1546939723 27899.891121952
39332	1416474 7382 10124 16380 84.5 137.5 213 483.14999389648 732.65417480469 111796.07025146 59787102.210219
39331	1423856 7359 10124 16380 84.5 137.5 213 184.17810058594 486.94201660156 87361.738800049 37782545.365818
39349	1431215 6588 10650 16554 88.25 139 204 0.973 11.36141391502 579.30447191497 2831.2158232497
39348	1437803 6529 10650 16554 88.25 139 204 -4.5 2.5000009536743 38.171613693237 388.88122757488
39347	1444332 6802 10616 16554 88 139 205 2.3558170795441 15.25 2227.9312188625 28835.554649534
39346	1451134 7153 10581 16554 87.75 139 206 236.96624755859 483.14999389648 91324.262451172 41501102.265885
39345	1458287 7115 10581 16554 87.75 139 206 172.9296875 483.15032958984 82568.260681152 35086383.832483
39370	1465402 5777 11580 16786 96 141 181 0.973 11.648172402475 521.08169984603 2807.862827682
39369	1471179 5889 11580 16786 96 141 181 -2.9690933227539 2.5 39.699392318726 247.34525383684
39368	1477068 6038 11555 16786 95.75 141 182 5.4721131324768 15.64999961853 2186.9578623772 28854.928873462
39367	1483106 6379 11529 16786 95.5 141 183 236.46435546875 483.14999389648 80369.640991211 36260777.306275
39366	1489485 6352 11529 16786 95.5 141 183 184.17810058594 483.14999389648 73327.514038086 31144385.382055
39391	1495837 5177 12355 16844 104 141.5 151 0.973 11.648172402475 478.70808012291 2509.2690494752
39390	1501014 4534 12355 16844 104 141.5 151 -3.2447547912598 2.5 39.869146347046 194.75361617061
39389	1505548 5089 12330 16844 103.75 141.5 152 5.6500000953674 15.64999961853 2210.2299604416 32858.829359978
39388	1510637 5355 12305 16844 103.5 141.5 153 486.85000610352 486.85000610352 74488.050933838 36264508.051778
39387	1515992 5323 12305 16844 103.5 141.5 153 238.5283203125 785.82187652588 79995.837211609 45859902.296935
vector 39506  IntersectionExampleScenario.node[63].veinsmobility  posx  ETV
vector 39507  IntersectionExampleScenario.node[63].veinsmobility  posy  ETV
vector 39508  IntersectionExampleScenario.node[63].veinsmobility  speed  ETV
vector 39509  IntersectionExampleScenario.node[63].veinsmobility  acceleration  ETV
vector 39510  IntersectionExampleScenario.node[63].veinsmobility  co2emission  ETV
39384	1521716 5610 12259 17321 103 145.75 172 0.973 10.916047529558 473.41324826113 2373.6684557848
39383	1527326 5673 12259 17321 103 145.75 172 -3.1903419494629 2.5 34.606801986694 227.23006075327
39382	1532999 5743 12236 17321 102.75 145.75 173 5.6500000953674 14.625 2180.1168766022 28486.463910668
39381	1538742 6078 12213 17321 102.5 145.75 174 237.54571533203 483.14999389648 75424.355255127 33677914.855448
39380	1544820 6066 12213 17321 102.5 145.75 174 184.17810058594 483.14999389648 69270.002349854 29382311.608057
vector 39513  IntersectionExampleScenario.node[64].veinsmobility  posx  ETV
vector 39514  IntersectionExampleScenario.node[64].veinsmobility  posy  ETV
vector 39515  IntersectionExampleScenario.node[64].veinsmobility  speed  ETV
vector 39516  IntersectionExampleScenario.node[64].veinsmobility  acceleration  ETV
vector 39517  IntersectionExampleScenario.node[64].veinsmobility  co2emission  ETV
39398	1551287 5403 12654 17406 107.25 146.5 158 0.973 11.648172402475 475.80841623701 2468.2454324205
39397	1556690 5017 12654 17406 107.25 146.5 158 -3.6570434570312 2.5 37.832105636597 197.72198719893
39396	1561707 5318 12631 17406 107 146.5 159 5.6500000953674 15.64999961853 2261.9439544678 32798.283977983
39395	1567025 5600 12608 17406 106.75 146.5 160 486.85000610352 486.85000610352 77896.000976562 37923668.550879
39394	1572625 5592 12608 17406 106.75 146.5 160 236.76922607422 797.07032012939 84261.529411316 48789505.943279
vector 39520  IntersectionExampleScenario.node[65].veinsmobility  posx  ETV
vector 39521  IntersectionExampleScenario.node[65].veinsmobility  posy  ETV
vector 39522  IntersectionExampleScenario.node[65].veinsmobility  speed  ETV
vector 39523  IntersectionExampleScenario.node[65].veinsmobility  acceleration  ETV
vector 39524  IntersectionExampleScenario.node[65].veinsmobility  co2emission  ETV
39377	1578618 6572 11709 17621 97.25 148.25 205 0.973 11.648172402475 577.62527313783 2965.3725972191
39376	1585190 6058 11709 17621 97.25 148.25 205 -7.775092124939 4 38.511121749878 480.02722360891
39375	1591248 6404 11682 17621 97 148.25 206 0 15.64999961853 2214.2519137859 31459.955894097
39374	1597652 7205 11655 17621 96.75 148.25 207 184.17810058594 733.9766998291 94043.528762817 46892129.313425
39373	1604857 7232 11655 17621 96.75 148.25 207 486.85000610352 486.85000610352 100777.95126343 49063746.187699
vector 39527  IntersectionExampleScenario.node[66].veinsmobility  posx  ETV
vector 39528  IntersectionExampleScenario.node[66].veinsmobility  posy  ETV
vector 39529  IntersectionExampleScenario.node[66].veinsmobility  speed  ETV
vector 39530  IntersectionExampleScenario.node[66].veinsmobility  acceleration  ETV
vector 39531  IntersectionExampleScenario.node[66].veinsmobility  co2emission  ETV
39433	1612490 5371 13197 18093 112.25 152 160 0.973 11.648172402475 539.97510769198 3274.3902279663
39432	1617861 5080 13197 18093 112.25 152 160 -3.6764945983887 2.5 38.171613693237 319.14947444853
39431	1622941 5343 13166 18093 112 152 161 5.6500000953674 15.64999961853 2200.903011322 31020.278607076
39430	1628284 5642 13134 18093 111.75 152 162 184.17810058594 486.85000610352 64477.978546143 27436959.121684
39429	1633926 5659 13134 18093 111.75 152 162 238.37786865234 486.85000610352 70540.250091553 31666057.446132
vector 39534  IntersectionExampleScenario.node[67].veinsmobility  posx  ETV
vector 39535  IntersectionExampleScenario.node[67].veinsmobility  posy  ETV
vector 39536  IntersectionExampleScenario.node[67].veinsmobility  speed  ETV
vector 39537  IntersectionExampleScenario.node[67].veinsmobility  acceleration  ETV
vector 39538  IntersectionExampleScenario.node[67].veinsmobility  co2emission  ETV
vector 39541  IntersectionExampleScenario.node[68].veinsmobility  posx  ETV
vector 39542  IntersectionExampleScenario.node[68].veinsmobility  posy  ETV
vector 39543  IntersectionExampleScenario.node[68].veinsmobility  speed  ETV
vector 39544  IntersectionExampleScenario.node[68].veinsmobility  acceleration  ETV
vector 39545  IntersectionExampleScenario.node[68].veinsmobility  co2emission  ETV
39419	1640387 6078 12983 18602 110.5 157.5 189 0.973 12.553400930962 594.9407423415 3323.4931712455
39418	1646465 5977 12983 18602 110.5 157.5 189 -8.8364057540894 4 42.754957199097 519.13000861884
39417	1652442 5920 12954 18602 110.25 157.5 190 0 16.89999961853 2178.604023695 32318.327666424
39416	1658362 6663 12925 18602 110 157.5 191 486.63604736328 785.82187652588 106693.31293488 61446698.452091
39415	1665025 6618 12925 18602 110 157.5 191 236.79827880859 483.14999389648 84576.282684326 38395439.72811
vector 39548  IntersectionExampleScenario.node[69].veinsmobility  posx  ETV
vector 39549  IntersectionExampleScenario.node[69].veinsmobility  posy  ETV
vector 39550  IntersectionExampleScenario.node[69].veinsmobility  speed  ETV
vector 39551  IntersectionExampleScenario.node[69].veinsmobility  acceleration  ETV
vector 39552  IntersectionExampleScenario.node[69].veinsmobility  co2emission  ETV
vector 39555  IntersectionExampleScenario.node[70].veinsmobility  posx  ETV
vector 39556  IntersectionExampleScenario.node[70].veinsmobility  posy  ETV
vector 39557  IntersectionExampleScenario.node[70].veinsmobility  speed  ETV
vector 39558  IntersectionExampleScenario.node[70].veinsmobility  acceleration  ETV
vector 39559  IntersectionExampleScenario.node[70].veinsmobility  co2emission  ETV
39468	1672445 5242 14483 18907 122 160.75 156 0.973 11.648172402475 530.82831735973 3224.211971665
39467	1677687 4964 14483 18907 122 160.75 156 -3.5419654846191 2.5 39.020376205444 285.71179134722
39466	1682651 5269 14450 18907 121.75 160.75 157 5.6500000953674 15.64999961853 2209.9420318604 31848.88055973
39465	1687920 5519 14417 18907 121.5 160.75 158 238.46557617188 785.82187652588 82712.083534241 47378160.362394
39464	1693439 5531 14417 18907 121.5 160.75 158 483.14999389648 483.14999389648 76337.699035645 36882558.823143
vector 39562  IntersectionExampleScenario.node[71].veinsmobility  posx  ETV
vector 39563  IntersectionExampleScenario.node[71].veinsmobility  posy  ETV
vector 39564  IntersectionExampleScenario.node[71].veinsmobility  speed  ETV
vector 39565  IntersectionExampleScenario.node[71].veinsmobility  acceleration  ETV
vector 39566  IntersectionExampleScenario.node[71].veinsmobility  co2emission  ETV
vector 39569  IntersectionExampleScenario.node[72].veinsmobility  posx  ETV
vector 39570  IntersectionExampleScenario.node[72].veinsmobility  posy  ETV
vector 39571  IntersectionExampleScenario.node[72].veinsmobility  speed  ETV
vector 39572  IntersectionExampleScenario.node[72].veinsmobility  acceleration  ETV
vector 39573  IntersectionExampleScenario.node[72].veinsmobility  co2emission  ETV
vector 39576  IntersectionExampleScenario.node[73].veinsmobility  posx  ETV
vector 39577  IntersectionExampleScenario.node[73].veinsmobility  posy  ETV
vector 39578  IntersectionExampleScenario.node[73].veinsmobility  speed  ETV
39426	1700004 7039 13103 19528 111.5 167 223 0.973 11.90022389248 609.39244710907 3138.0280673739
39425	1707043 6441 13103 19528 111.5 167 223 -8.2147388458252 4 39.699392318726 507.21847294411
39424	1713484 6783 13072 19528 111.25 167 224 0 16 2256.8231897354 32688.060276814
39423	1720267 7873 13041 19528 111 167 225 486.85000610352 486.85000610352 109541.25137329 53330158.899673
39422	1728140 7860 13041 19528 111 167 225 235.46020507812 795.80704498291 116533.37457275 64717494.172079
vector 39579  IntersectionExampleScenario.node[73].veinsmobility  acceleration  ETV
vector 39580  IntersectionExampleScenario.node[73].veinsmobility  co2emission  ETV
39412	1736169 7254 12954 19609 110.25 167.75 231 0.96841892828299 11.810082123732 628.00125028512 3019.284938614
39411	1743423 6635 12954 19609 110.25 167.75 231 -7.9931592941284 2.5 41.057416915894 529.48811991406
39410	1750058 6907 12925 19609 110 167.75 232 -0.074055671691895 15.948137283325 2250.5442483425 32524.413247142
39409	1756965 8152 12898 19609 109.75 167.75 233 239.18237304688 483.14999389648 104851.98007202 48177415.212484
39408	1765117 8118 12898 19609 109.75 167.75 233 164.94219970703 483.14999389648 96072.609832764 41940577.92236
vector 39583  IntersectionExampleScenario.node[74].veinsmobility  posx  ETV
vector 39584  IntersectionExampleScenario.node[74].veinsmobility  posy  ETV
vector 39585  IntersectionExampleScenario.node[74].veinsmobility  speed  ETV
39405	1773467 7565 12773 19665 108.5 168.25 240 0.973 11.00486315618 588.14991601378 2663.2277332242
39404	1781032 6802 12773 19665 108.5 168.25 240 -33.255874633789 4 34.606801986694 1452.4664941325
39403	1787834 7189 12748 19665 108.25 168.25 241 0 14.75 2217.1469421387 30254.18741797
39402	1795023 8469 12723 19665 108 168.25 242 483.14999389648 483.14999389648 116922.29852295 56491007.817726
39401	1803492 8441 12723 19665 108 168.25 242 184.17810058594 734.72151184082 110691.61000061 55025474.899497
vector 39586  IntersectionExampleScenario.node[74].veinsmobility  acceleration  ETV
vector 39587  IntersectionExampleScenario.node[74].veinsmobility  co2emission  ETV
39447	1812102 7316 13457 19752 114.25 169 220 0.973 11.36141391502 583.12413226967 2802.6518488298
39446	1819418 7091 13457 19752 114.25 169 220 -4.5 2.500000089407 37.32285118103 411.94219233378
39445	1826509 7446 13422 19752 114 169 221 0 15.25 2262.5618671943 30909.908199824
39444	1833955 7761 13387 19752 113.75 169 222 486.85000610352 733.7179107666 116431.70687866 62121720.108714
39443	1841716 7755 13387 19752 113.75 169 222 486.85000610352 805.03791046143 124854.3789978 72497927.707613
39454	1849471 6624 14027 19868 118.5 170 207 0.973 11.990504229548 587.71342235229 3015.7203308639
39453	1856095 6933 14027 19868 118.5 170 207 -4.5 2.5 40.038900375366 390.35401509464
39452	1863028 7071 13992 19868 118.25 170 208 0 16.125 2277.4760528281 31210.500003812
39451	1870099 7313 13957 19868 118 170 209 486.85000610352 486.85000610352 101751.65127563 49537792.044585
39450	1877412 7285 13957 19868 118 170 209 235.37322998047 799.79084014893 110200.77046204 62528403.401505
39440	1884697 7499 13387 19984 113.75 171 230 0.973 11.200708441096 588.39255507535 2701.9776012581
39439	1892196 7614 13387 19984 113.75 171 230 -3.9218485355377 2.5000009536743 37.32285118103 336.04195223652
39438	1899810 7923 13354 19984 113.5 171 231 0 15.067045211792 2280.1835661661 30125.060891239
39437	1907733 8113 13321 19984 113.25 171 232 483.14999389648 732.2982635498 120581.38482666 63770245.433514
39436	1915846 8092 13321 19984 113.25 171 232 164.91638183594 486.94729614258 94760.541015625 41001445.255236
39461	1923938 6639 14226 20071 120 171.75 208 0.973 11.200708441096 583.92360972251 2837.2227718723
39460	1930577 7011 14226 20071 120 171.75 208 -4.5 2.5 41.057416915894 388.04296252741
39459	1937588 7100 14192 20071 119.75 171.75 209 0 15.957404136658 2217.7742239833 30176.912279787
39458	1944688 7351 14159 20071 119.5 171.75 210 483.14999389648 483.14999389648 101461.49871826 49021122.486456
39457	1952039 7315 14159 20071 119.5 171.75 210 184.17810058594 733.47288513184 93597.14616394 45774515.679272
vector 39590  IntersectionExampleScenario.node[75].veinsmobility  posx  ETV
vector 39591  IntersectionExampleScenario.node[75].veinsmobility  posy  ETV
vector 39592  IntersectionExampleScenario.node[75].veinsmobility  speed  ETV
vector 39593  IntersectionExampleScenario.node[75].veinsmobility  acceleration  ETV
vector 39594  IntersectionExampleScenario.node[75].veinsmobility  co2emission  ETV
vector 39597  IntersectionExampleScenario.node[76].veinsmobility  posx  ETV
vector 39598  IntersectionExampleScenario.node[76].veinsmobility  posy  ETV
vector 39599  IntersectionExampleScenario.node[76].veinsmobility  speed  ETV
vector 39600  IntersectionExampleScenario.node[76].veinsmobility  acceleration  ETV
vector 39601  IntersectionExampleScenario.node[76].veinsmobility  co2emission  ETV
39475	1960156 6783 14552 20436 122.5 174.75 210 0.973 11.200708441096 549.3447686363 2658.1069721115
39474	1966939 6776 14552 20436 122.5 174.75 210 -4.3011646270752 2.5 35.455564498901 405.93986629959
39473	1973715 7030 14518 20436 122.25 174.75 211 0 15.02499961853 2241.1446341015 28679.06908455
39472	1980745 7411 14483 20436 122 174.75 212 486.85000610352 734.28318786621 111857.275177 60090452.065562
39471	1988156 7403 14483 20436 122 174.75 212 486.85000610352 799.00637054443 120312.40365601 70364765.498711
vector 39604  IntersectionExampleScenario.node[77].veinsmobility  posx  ETV
vector 39605  IntersectionExampleScenario.node[77].veinsmobility  posy  ETV
vector 39606  IntersectionExampleScenario.node[77].veinsmobility  speed  ETV
vector 39611  IntersectionExampleScenario.node[78].veinsmobility  posx  ETV
vector 39612  IntersectionExampleScenario.node[78].veinsmobility  posy  ETV
vector 39607  IntersectionExampleScenario.node[77].veinsmobility  acceleration  ETV
vector 39608  IntersectionExampleScenario.node[77].veinsmobility  co2emission  ETV
vector 39618  IntersectionExampleScenario.node[79].veinsmobility  posx  ETV
vector 39619  IntersectionExampleScenario.node[79].veinsmobility  posy  ETV
vector 39613  IntersectionExampleScenario.node[78].veinsmobility  speed  ETV
vector 39614  IntersectionExampleScenario.node[78].veinsmobility  acceleration  ETV
vector 39615  IntersectionExampleScenario.node[78].veinsmobility  co2emission  ETV
vector 39620  IntersectionExampleScenario.node[79].veinsmobility  speed  ETV
vector 39621  IntersectionExampleScenario.node[79].veinsmobility  acceleration  ETV
vector 39622  IntersectionExampleScenario.node[79].veinsmobility  co2emission  ETV
39489	1996762 6610 15429 21209 129.5 180.75 206 0.973 11.36141391502 557.93876973841 2756.9007118114
39488	2003372 6247 15429 21209 129.5 180.75 206 -8.817081451416 4 36.134572982788 474.74782240733
39487	2009619 6427 15398 21209 129.25 180.75 207 0 15.25 2178.3661410809 29708.488179711
39486	2016046 7255 15367 21209 129 180.75 208 184.17810058594 483.36395263672 85822.988555908 37366569.174575
39485	2023301 7212 15367 21209 129 180.75 208 486.85000610352 733.67727661133 109768.92060852 58978394.590278
39496	2030513 6426 15843 21242 133 181 193 0.973 11.200708441096 578.66100800119 2835.4803566574
39495	2036939 6293 15843 21242 133 181 193 -4.5 2.5000000596046 40.038900375366 435.47667834706
39494	2043232 6650 15814 21242 132.75 181 194 0 15.725982666016 2254.6734789424 32210.923503273
39493	2049882 6795 15785 21242 132.5 181 195 174.53436279297 733.31500244141 87171.794067383 43267041.543661
39492	2056677 6824 15785 21242 132.5 181 195 486.85000610352 486.85000610352 94935.751190186 46219471.046384
vector 39625  IntersectionExampleScenario.node[80].veinsmobility  posx  ETV
vector 39626  IntersectionExampleScenario.node[80].veinsmobility  posy  ETV
vector 39632  IntersectionExampleScenario.node[81].veinsmobility  posx  ETV
vector 39633  IntersectionExampleScenario.node[81].veinsmobility  posy  ETV
vector 39627  IntersectionExampleScenario.node[80].veinsmobility  speed  ETV
vector 39628  IntersectionExampleScenario.node[80].veinsmobility  acceleration  ETV
vector 39629  IntersectionExampleScenario.node[80].veinsmobility  co2emission  ETV
vector 39634  IntersectionExampleScenario.node[81].veinsmobility  speed  ETV
vector 39635  IntersectionExampleScenario.node[81].veinsmobility  acceleration  ETV
vector 39636  IntersectionExampleScenario.node[81].veinsmobility  co2emission  ETV
vector 39639  IntersectionExampleScenario.node[82].veinsmobility  posx  ETV
vector 39640  IntersectionExampleScenario.node[82].veinsmobility  posy  ETV
vector 39641  IntersectionExampleScenario.node[82].veinsmobility  speed  ETV
vector 39646  IntersectionExampleScenario.node[83].veinsmobility  posx  ETV
vector 39647  IntersectionExampleScenario.node[83].veinsmobility  posy  ETV
vector 39642  IntersectionExampleScenario.node[82].veinsmobility  acceleration  ETV
vector 39643  IntersectionExampleScenario.node[82].veinsmobility  co2emission  ETV
vector 39648  IntersectionExampleScenario.node[83].veinsmobility  speed  ETV
vector 39649  IntersectionExampleScenario.node[83].veinsmobility  acceleration  ETV
vector 39650  IntersectionExampleScenario.node[83].veinsmobility  co2emission  ETV
vector 39653  IntersectionExampleScenario.node[84].veinsmobility  posx  ETV
vector 39654  IntersectionExampleScenario.node[84].veinsmobility  posy  ETV
vector 39655  IntersectionExampleScenario.node[84].veinsmobility  speed  ETV
vector 39656  IntersectionExampleScenario.node[84].veinsmobility  acceleration  ETV
vector 39657  IntersectionExampleScenario.node[84].veinsmobility  co2emission  ETV
vector 39660  IntersectionExampleScenario.node[85].veinsmobility  posx  ETV
vector 39661  IntersectionExampleScenario.node[85].veinsmobility  posy  ETV
vector 39662  IntersectionExampleScenario.node[85].veinsmobility  speed  ETV
vector 39663  IntersectionExampleScenario.node[85].veinsmobility  acceleration  ETV
vector 39664  IntersectionExampleScenario.node[85].veinsmobility  co2emission  ETV
vector 39667  IntersectionExampleScenario.node[86].veinsmobility  posx  ETV
vector 39668  IntersectionExampleScenario.node[86].veinsmobility  posy  ETV
39482	2066061 7954 15124 22641 127 191 257 0.973 11.200708441096 606.00446332719 2703.9037024309
39481	2074015 7003 15124 22641 127 191 257 -19.464996337891 4 35.625318527222 766.7541659142
39480	2081018 7492 15093 22641 126.75 191 258 0 15.02499961853 2186.6244335175 29834.403923788
39479	2088510 9058 15062 22641 126.5 191 259 486.63604736328 785.82187652588 141372.53781891 79272602.062309
39478	2097568 8993 15062 22641 126.5 191 259 234.9931640625 483.14999389648 116461.53604126 53509685.020881
vector 39669  IntersectionExampleScenario.node[86].veinsmobility  speed  ETV
39503	2106639 7329 16021 22678 134.5 191.25 228 0.973 11.648172402475 588.37581214279 2932.3562250082
39502	2113968 7706 16021 22678 134.5 191.25 228 -3.7060842514038 2.5 38.341367721558 344.4677603902
39501	2121674 7862 15990 22678 134.25 191.25 229 0 15.64999961853 2212.6386328042 29688.584712483
39500	2129536 8021 15959 22678 134 191.25 230 237.41235351562 785.82187652588 119360.64015961 66086275.517837
39499	2137557 8049 15959 22678 134 191.25 230 483.14999389648 483.14999389648 111124.49859619 53689800.8185
vector 39670  IntersectionExampleScenario.node[86].veinsmobility  acceleration  ETV
vector 39671  IntersectionExampleScenario.node[86].veinsmobility  co2emission  ETV
39524	2145775 6177 17497 23134 147.25 194.5 190 0.973 11.00486315618 518.8910689139 2510.0540722519
39523	2151952 6143 17497 23134 147.25 194.5 190 -2.1255283355713 2.5 34.437047958374 273.40029272962
39522	2158095 6401 17466 23134 147 194.5 191 3.3259611129761 14.75 2205.2611794472 27910.935432341
39521	2164496 6712 17435 23134 146.75 194.5 192 482.93609619141 785.82187652588 108787.05654907 63515102.792415
39520	2171208 6711 17435 23134 146.75 194.5 192 483.14999389648 732.9771270752 101698.79750061 54942263.520167
vector 39674  IntersectionExampleScenario.node[87].veinsmobility  posx  ETV
vector 39675  IntersectionExampleScenario.node[87].veinsmobility  posy  ETV
vector 39676  IntersectionExampleScenario.node[87].veinsmobility  speed  ETV
vector 39681  IntersectionExampleScenario.node[88].veinsmobility  posx  ETV
vector 39682  IntersectionExampleScenario.node[88].veinsmobility  posy  ETV
vector 39677  IntersectionExampleScenario.node[87].veinsmobility  acceleration  ETV
vector 39678  IntersectionExampleScenario.node[87].veinsmobility  co2emission  ETV
vector 39683  IntersectionExampleScenario.node[88].veinsmobility  speed  ETV
vector 39688  IntersectionExampleScenario.node[89].veinsmobility  posx  ETV
vector 39689  IntersectionExampleScenario.node[89].veinsmobility  posy  ETV
vector 39684  IntersectionExampleScenario.node[88].veinsmobility  acceleration  ETV
vector 39685  IntersectionExampleScenario.node[88].veinsmobility  co2emission  ETV
vector 39690  IntersectionExampleScenario.node[89].veinsmobility  speed  ETV
vector 39691  IntersectionExampleScenario.node[89].veinsmobility  acceleration  ETV
vector 39692  IntersectionExampleScenario.node[89].veinsmobility  co2emission  ETV
vector 39695  IntersectionExampleScenario.node[90].veinsmobility  posx  ETV
vector 39696  IntersectionExampleScenario.node[90].veinsmobility  posy  ETV
vector 39697  IntersectionExampleScenario.node[90].veinsmobility  speed  ETV
vector 39698  IntersectionExampleScenario.node[90].veinsmobility  acceleration  ETV
vector 39699  IntersectionExampleScenario.node[90].veinsmobility  co2emission  ETV
vector 39702  IntersectionExampleScenario.node[91].veinsmobility  posx  ETV
vector 39703  IntersectionExampleScenario.node[91].veinsmobility  posy  ETV
vector 39704  IntersectionExampleScenario.node[91].veinsmobility  speed  ETV
vector 39705  IntersectionExampleScenario.node[91].veinsmobility  acceleration  ETV
vector 39706  IntersectionExampleScenario.node[91].veinsmobility  co2emission  ETV
39510	2179924 7072 17065 23889 143.5 199.25 224 0.973 11.648172402475 595.34108783264 2899.9584395295
39509	2186996 6465 17065 23889 143.5 199.25 224 -7.0929417610168 4 38.341367721558 476.31034811084
39508	2193461 6827 17036 23889 143.25 199.25 225 0 15.64999961853 2210.7837811708 31355.356149709
39507	2200288 7909 17007 23889 143 199.25 226 483.14999389648 483.14999389648 109191.89862061 52756065.152091
39506	2208197 7873 17007 23889 143 199.25 226 184.17810058594 732.97193908691 102953.96070862 51059846.975118
vector 39709  IntersectionExampleScenario.node[92].veinsmobility  posx  ETV
vector 39710  IntersectionExampleScenario.node[92].veinsmobility  posy  ETV
vector 39711  IntersectionExampleScenario.node[92].veinsmobility  speed  ETV
39531	2216302 6515 17873 24011 150.25 200 200 0.973 11.200708441096 550.02612800753 2661.019906421
39530	2222817 6012 17873 24011 150.25 200 200 -6.8640689849854 4 35.625318527222 447.68975026733
39529	2228829 6376 17840 24011 150 200 201 0 15.02499961853 2205.7956194878 30004.684011173
39528	2235205 7067 17807 24011 149.75 200 202 235.62408447266 486.85000610352 89482.474487305 40735375.482837
39527	2242272 7062 17807 24011 149.75 200 202 483.14999389648 785.82187652588 112734.71863556 64892837.541106
vector 39716  IntersectionExampleScenario.node[93].veinsmobility  posx  ETV
vector 39717  IntersectionExampleScenario.node[93].veinsmobility  posy  ETV
vector 39712  IntersectionExampleScenario.node[92].veinsmobility  acceleration  ETV
vector 39713  IntersectionExampleScenario.node[92].veinsmobility  co2emission  ETV
vector 39718  IntersectionExampleScenario.node[93].veinsmobility  speed  ETV
vector 39723  IntersectionExampleScenario.node[94].veinsmobility  posx  ETV
vector 39724  IntersectionExampleScenario.node[94].veinsmobility  posy  ETV
vector 39719  IntersectionExampleScenario.node[93].veinsmobility  acceleration  ETV
vector 39720  IntersectionExampleScenario.node[93].veinsmobility  co2emission  ETV
vector 39725  IntersectionExampleScenario.node[94].veinsmobility  speed  ETV
vector 39726  IntersectionExampleScenario.node[94].veinsmobility  acceleration  ETV
vector 39727  IntersectionExampleScenario.node[94].veinsmobility  co2emission  ETV
39517	2250305 7299 17406 24228 146.5 201.25 220 0.973 11.648172402475 620.56555960039 3098.0568474283
39516	2257604 7387 17406 24228 146.5 201.25 220 -4.5 2.5000009536743 39.730916976929 477.75906129942
39515	2264991 7507 17377 24228 146.25 201.25 221 0 15.64999961853 2236.9739995562 31182.120111331
39514	2272498 7760 17348 24228 146 201.25 222 236.27642822266 483.14999389648 99022.763397217 45219751.452472
39513	2280258 7738 17348 24228 146 201.25 222 171.40313720703 483.22906494141 91338.90737915 39725545.69156
39573	2287996 5023 19426 24534 166 203 149 0.973 12.099024792222 532.21357561455 3271.9960079798
39572	2293019 4671 19426 24534 166 203 149 -3.3676986694336 2.5 41.90619468689 267.87540345028
39571	2297690 4998 19401 24534 165.75 203 150 5.6500000953674 16.27499961853 2212.3682022095 33456.825544021
39570	2302688 5284 19376 24534 165.5 203 151 483.14999389648 483.14999389648 72955.649078369 35248521.406928
39569	2307972 5257 19376 24534 165.5 203 151 184.17810058594 731.58828735352 67325.131256104 33970429.795598
39566	2313229 5312 19302 24706 164.75 204 158 0.973 11.810082123732 552.61793456354 3415.645793801
39565	2318541 5018 19302 24706 164.75 204 158 -3.6669425964355 2.5 39.869146347046 352.67983052635
39564	2323559 5237 19277 24706 164.5 204 159 5.6500000953674 15.875 2177.9519386292 31284.295772453
39563	2328796 5590 19252 24706 164.25 204 160 486.85000610352 731.48310852051 85793.702072144 46895770.711569
39562	2334386 5588 19252 24706 164.25 204 160 486.85000610352 785.82187652588 91667.999595642 54241025.622863
39587	2339974 5305 19694 25198 168.5 207 155 0.97223939240464 11.648172402475 477.52217512833 2520.8069602697
39586	2345279 5046 19694 25198 168.5 207 155 -3.7663650512695 2.5 38.680875778198 201.36960111495
39585	2350325 5231 19665 25198 168.25 207 156 5.6500000953674 15.64999961853 2241.8073949814 32872.806374403
39584	2355556 5493 19636 25198 168 207 157 486.85000610352 486.85000610352 76435.450958252 37212599.76555
39583	2361049 5466 19636 25198 168 207 157 238.51782226562 793.78281402588 82622.600387573 47741899.459847
vector 39730  IntersectionExampleScenario.node[95].veinsmobility  posx  ETV
vector 39731  IntersectionExampleScenario.node[95].veinsmobility  posy  ETV
vector 39732  IntersectionExampleScenario.node[95].veinsmobility  speed  ETV
vector 39737  IntersectionExampleScenario.node[96].veinsmobility  posx  ETV
vector 39738  IntersectionExampleScenario.node[96].veinsmobility  posy  ETV
vector 39733  IntersectionExampleScenario.node[95].veinsmobility  acceleration  ETV
vector 39734  IntersectionExampleScenario.node[95].veinsmobility  co2emission  ETV
vector 39739  IntersectionExampleScenario.node[96].veinsmobility  speed  ETV
vector 39740  IntersectionExampleScenario.node[96].veinsmobility  acceleration  ETV
vector 39741  IntersectionExampleScenario.node[96].veinsmobility  co2emission  ETV
39538	2367317 7063 18515 26021 156.5 212.25 224 0.97223939240464 11.648172402475 596.46484855492 2965.9053589596
39537	2374380 6420 18515 26021 156.5 212.25 224 -7.1630792617798 4 38.680875778198 471.71272998936
39536	2380800 6786 18493 26021 156.25 212.25 225 0 15.64999961853 2204.4857602119 31271.546807197
39535	2387586 7881 18470 26021 156 212.25 226 184.17810058594 486.85000610352 94877.090301514 41852988.417662
39534	2395467 7904 18470 26021 156 212.25 226 236.21789550781 486.85000610352 101625.14337158 46788230.351843
39559	2403371 7149 18807 26213 159.75 213.5 216 0.973 11.54047740176 576.23772058369 2814.0352263237
39558	2410520 7028 18807 26213 159.75 213.5 216 -4.5 2.5 37.15309715271 431.10644116036
39557	2417548 7219 18782 26213 159.5 213.5 217 0 15.5 2167.6849748185 29815.143821077
39556	2424767 7594 18757 26213 159.25 213.5 218 194.95623779297 732.33700561523 99552.004135132 49412147.562277
39555	2432361 7631 18757 26213 159.25 213.5 218 486.85000610352 486.85000610352 106133.30133057 51670998.400572
39545	2439992 7685 18602 26501 157.5 215.5 233 0.973 11.093806525473 654.08722093006 3102.4990708092
39544	2447677 7416 18602 26501 157.5 215.5 233 -4.5 2.5000004768372 38.680875778198 560.38314337079
39543	2455093 8011 18580 26501 157.25 215.5 234 0 15.397466659546 2309.0274710897 30848.212213271
39542	2463104 8160 18557 26501 157 215.5 235 162.00311279297 734.91990661621 102246.67645264 49601348.393327
39541	2471264 8224 18557 26501 157 215.5 235 486.85000610352 486.85000610352 114409.75143433 55700388.184103
vector 39744  IntersectionExampleScenario.node[97].veinsmobility  posx  ETV
vector 39745  IntersectionExampleScenario.node[97].veinsmobility  posy  ETV
vector 39746  IntersectionExampleScenario.node[97].veinsmobility  speed  ETV
vector 39747  IntersectionExampleScenario.node[97].veinsmobility  acceleration  ETV
vector 39748  IntersectionExampleScenario.node[97].veinsmobility  co2emission  ETV
39552	2479889 7733 18711 26733 158.75 217.25 235 0.973 11.54047740176 638.93623624952 3060.728362169
39551	2487622 7735 18711 26733 158.75 217.25 235 -4.5 2.5000009536743 40.548154830933 489.49603550783
39550	2495357 7999 18688 26733 158.5 217.25 236 0 15.844592094421 2348.7617423907 31927.04816745
39549	2503356 8241 18665 26733 158.25 217.25 237 151.81719970703 733.52062988281 101431.20343018 48673614.159856
39548	2511597 8296 18665 26733 158.25 217.25 237 486.85000610352 486.85000610352 115383.45144653 56174434.040989
vector 39751  IntersectionExampleScenario.node[98].veinsmobility  posx  ETV
vector 39752  IntersectionExampleScenario.node[98].veinsmobility  posy  ETV
vector 39753  IntersectionExampleScenario.node[98].veinsmobility  speed  ETV
vector 39754  IntersectionExampleScenario.node[98].veinsmobility  acceleration  ETV
vector 39755  IntersectionExampleScenario.node[98].veinsmobility  co2emission  ETV
39580	2520294 7069 19555 27182 167.25 221 216 0.973 11.810082123732 610.20279380946 3243.4199826933
39579	2527363 6900 19555 27182 167.25 221 216 -4.5 2.5 39.529638290405 488.96418123517
39578	2534263 7172 19528 27182 167 221 217 0 15.875 2190.5115830144 29670.7001154
39577	2541435 7595 19501 27182 166.75 221 218 184.17810058594 483.14999389648 89188.389526367 38306918.209119
[...]
44242	26791235 8133 218630 228303 1705.75 1766.75 245 0.973 12.062950474784 638.32325116615 3204.4044919773
44241	26799368 7839 218630 228303 1705.75 1766.75 245 -9.2135448455811 4 40.717908859253 525.39243131911
44240	26807207 7877 218585 228303 1705.5 1766.75 246 0 16.225147247314 2311.4090385437 32605.14291769
44239	26815084 9141 218540 228303 1705.25 1766.75 247 486.85000610352 486.85000610352 120251.95150757 58544663.325419
44238	26824225 9117 218540 228303 1705.25 1766.75 247 236.18908691406 810.23281097412 130608.89652252 74103671.164021
44284	26833342 7452 219919 228408 1712.5 1767.5 221 0.973 11.450879080643 584.20042240935 2847.7267450658
44283	26840794 6790 219919 228408 1712.5 1767.5 221 -7.457010269165 4 37.32285118103 472.71634007258
44282	26847584 7224 219870 228408 1712.25 1767.5 222 0 15.375 2213.2772502899 30957.844004183
44281	26854808 8250 219821 228408 1712 1767.5 223 483.14999389648 483.14999389648 107742.44863892 52055763.402284
44280	26863058 8219 219821 228408 1712 1767.5 223 184.17810058594 733.81198120117 101578.88781738 50498495.080411
44263	26871277 8129 219096 228508 1708.25 1768.25 241 0.973 10.851924158605 637.04884777607 3051.9989122794
44262	26879406 8000 219096 228508 1708.25 1768.25 241 -7.2921180725098 2.5 40.548154830933 513.28862117359
44261	26887406 8101 219047 228508 1708 1768.25 242 -0.53244018554688 16.036142349243 2324.4192940593 33079.441250992
44260	26895507 8991 218998 228508 1707.75 1768.25 243 486.85000610352 486.85000610352 118304.55148315 57596571.611647
44259	26904498 8940 218998 228508 1707.75 1768.25 243 237.53137207031 814.1756439209 128385.40240479 72722202.083352
44312	26913438 5742 222569 228574 1728.25 1768.75 163 0.973 12.099024792222 536.05507477961 3028.8214681074
44311	26919180 5591 222569 228574 1728.25 1768.75 163 -2.1495246887207 2.5000019073486 41.736440658569 265.90303298684
44310	26924771 5852 222530 228574 1728 1768.75 164 5.6500000953674 16.27499961853 2214.5715069771 31647.564552018
44309	26930623 6106 222491 228574 1727.75 1768.75 165 483.14999389648 483.14999389648 79719.74899292 38516596.239358
44308	26936729 6080 222491 228574 1727.75 1768.75 165 184.17810058594 732.11795043945 73477.134353638 36695022.060268
vector 44434  IntersectionExampleScenario.node[767].veinsmobility  posx  ETV
vector 44435  IntersectionExampleScenario.node[767].veinsmobility  posy  ETV
vector 44436  IntersectionExampleScenario.node[767].veinsmobility  speed  ETV
vector 44437  IntersectionExampleScenario.node[767].veinsmobility  acceleration  ETV
vector 44438  IntersectionExampleScenario.node[767].veinsmobility  co2emission  ETV
44291	26943215 7967 220165 228971 1713.75 1771.75 233 0.973 11.36141391502 579.42040538296 2773.834240105
44290	26951182 8301 220165 228971 1713.75 1771.75 233 -3.6791214942932 2.5000004768372 35.964826583862 337.50137813459
44289	26959483 8319 220116 228971 1713.5 1771.75 234 0 15.25 2238.6083965246 28996.353743084
44288	26967802 8691 220066 228971 1713.25 1771.75 235 486.85000610352 733.18824768066 122901.22698975 65361348.832333
44287	26976493 8682 220066 228971 1713.25 1771.75 235 486.85000610352 799.40335083008 131688.80727386 75974325.885121
vector 44441  IntersectionExampleScenario.node[768].veinsmobility  posx  ETV
vector 44442  IntersectionExampleScenario.node[768].veinsmobility  posy  ETV
vector 44443  IntersectionExampleScenario.node[768].veinsmobility  speed  ETV
44305	26985410 6582 222084 229098 1725 1772.75 192 0.973 11.648172402475 551.33235603841 2901.0066561188
44304	26991992 6611 222084 229098 1725 1772.75 192 -3.3283443450928 2.5 38.341367721558 321.28204126483
44303	26998603 6929 222047 229098 1724.75 1772.75 193 2.5349178314209 15.64999961853 2221.4143118858 29392.111787449
44302	27005532 7179 222009 229098 1724.5 1772.75 194 486.85000610352 486.85000610352 94448.901184082 45982448.117941
44301	27012711 7151 222009 229098 1724.5 1772.75 194 235.71832275391 785.82187652588 101543.16881561 57333330.85411
vector 44444  IntersectionExampleScenario.node[768].veinsmobility  acceleration  ETV
vector 44445  IntersectionExampleScenario.node[768].veinsmobility  co2emission  ETV
44326	27020033 6232 222884 229229 1730.25 1773.75 175 0.973 11.200708441096 543.94411195272 2930.997072499
44325	27026265 5948 222884 229229 1730.25 1773.75 175 -4.3486709594727 2.5 35.795072555542 349.47570450302
44324	27032213 6199 222843 229229 1730 1773.75 176 5.6500000953674 15.02499961853 2254.5458664894 30107.757585786
44323	27038412 6537 222802 229229 1729.75 1773.75 177 237.08630371094 483.14999389648 77003.713806152 34483802.642402
44322	27044949 6495 222802 229229 1729.75 1773.75 177 166.078125 483.14999389648 69297.363830566 29203749.024425
44340	27051444 5774 223777 229570 1736.25 1776.5 162 0.973 11.200708441096 499.54528706875 2568.1979473794
44339	27057218 5669 223777 229570 1736.25 1776.5 162 -4.5 2.5 38.171613693237 264.13201381419
44338	27062887 5716 223738 229570 1736 1776.5 163 5.6500000953674 15.344589233398 2183.8834338188 30588.110489063
44337	27068603 6064 223699 229570 1735.75 1776.5 164 237.14904785156 483.14999389648 71034.577178955 31696858.151341
44336	27074667 6038 223699 229570 1735.75 1776.5 164 184.17810058594 483.14999389648 65281.608032227 27738287.538425
44333	27080705 5849 223738 229601 1736 1776.75 164 0.973 10.865364375221 478.64680815955 2445.233238522
44332	27086554 5462 223738 229601 1736 1776.75 164 -2.7582397460938 2.5 34.267293930054 194.11804891104
44331	27092016 5895 223699 229601 1735.75 1776.75 165 5.6500000953674 14.553587913513 2210.9681739807 30055.247963098
44330	27097911 6143 223662 229601 1735.5 1776.75 166 486.85000610352 486.85000610352 80817.101013184 39345806.121537
44329	27104054 6134 223662 229601 1735.5 1776.75 166 237.85113525391 785.82187652588 86473.758071899 49380916.792154
vector 44448  IntersectionExampleScenario.node[769].veinsmobility  posx  ETV
vector 44449  IntersectionExampleScenario.node[769].veinsmobility  posy  ETV
vector 44450  IntersectionExampleScenario.node[769].veinsmobility  speed  ETV
vector 44451  IntersectionExampleScenario.node[769].veinsmobility  acceleration  ETV
vector 44452  IntersectionExampleScenario.node[769].veinsmobility  co2emission  ETV
44214	27110594 11425 216232 230092 1692.5 1780.75 354 0.973 11.36141391502 765.50503751675 3434.1461807113
44213	27122019 11353 216232 230092 1692.5 1780.75 354 -6.6981468200684 4 36.304327011108 638.65587419738
44212	27133372 11506 216185 230092 1692.25 1780.75 355 0 15.25 2183.296127826 26156.347160625
44211	27144878 13136 216138 230092 1692 1780.75 356 184.17810058594 483.36395263672 150543.87734985 65784537.482983
44210	27158014 13098 216138 230092 1692 1780.75 356 486.84994506836 734.20483398438 181836.17182922 94075909.181952
44228	27171112 10818 217211 230123 1697.75 1781 334 0.973 12.099024792222 744.24872175576 3546.975429302
44227	27181930 10815 217211 230123 1697.75 1781 334 -4.5 2.5 40.038900375366 588.76372991829
44226	27192745 10981 217164 230123 1697.5 1781 335 0 16.27499961853 2219.9993134374 28206.089698814
44225	27203726 12397 217116 230123 1697.25 1781 336 184.17810058594 734.56904602051 149244.07369995 70518857.786057
44224	27216123 12432 217116 230123 1697.25 1781 336 486.84994506836 486.85003662109 163581.60159302 79639703.511121
44249	27228555 10308 218811 230514 1706.75 1784.25 311 0.97223939240464 11.648172402475 668.70558231245 3016.1343892531
44248	27238863 10808 218811 230514 1706.75 1784.25 311 -4.5 2.5 38.680875778198 384.80900889394
44247	27249671 11199 218764 230514 1706.5 1784.25 312 0 15.64999961853 2190.3945149798 26541.245116239
44246	27260870 11529 218719 230514 1706.25 1784.25 313 184.17810058594 483.14999389648 130325.15612793 56233117.922365
44245	27272399 11579 218719 230514 1706.25 1784.25 313 486.85000610352 735.10995483398 160663.70800781 83614924.915904
44270	27283978 10870 219096 230725 1708.25 1786.25 313 0.973 11.200708441096 672.08040941797 2791.8961251564
44269	27294848 11201 219096 230725 1708.25 1786.25 313 -4.5 2.5 35.964826583862 414.69097271751
44268	27306049 11379 219047 230725 1708 1786.25 314 0 15.02499961853 2298.6987029091 28037.476524509
44267	27317428 11596 218998 230725 1707.75 1786.25 315 163.88433837891 733.73484802246 137335.181427 64703287.424472
44266	27329024 11655 218998 230725 1707.75 1786.25 315 486.85000610352 486.85000610352 153357.75192261 74662222.459543
44277	27340679 10688 219680 230840 1711.25 1787.5 306 0.973 11.955686232066 716.34909999995 3180.1995812078
44276	27351367 10963 219680 230840 1711.25 1787.5 306 -4.5 2.5 41.707258224487 546.39304660423
44275	27362330 11068 219632 230840 1711 1787.5 307 0 16.076814651489 2311.3250657264 29605.201066006
44274	27373398 11358 219583 230840 1710.75 1787.5 308 161.25622558594 733.3254699707 133055.18032837 62172902.979067
44273	27384756 11396 219583 230840 1710.75 1787.5 308 486.85000610352 486.85003662109 149949.80203247 73003062.109017
44347	27396152 7199 223858 231034 1736.75 1790 214 0.973 11.810082123732 586.67990450783 3044.0292125813
44346	27403351 6767 223858 231034 1736.75 1790 214 -6.8117866516113 4 38.850629806519 475.00774497838
44345	27410118 6944 223818 231034 1736.5 1790 215 0 15.875 2171.3403301239 30734.834029248
44344	27417062 7985 223777 231034 1736.25 1790 216 486.63604736328 785.82187652588 119598.66925812 68179964.832489
44343	27425047 7918 223777 231034 1736.25 1790 216 238.59930419922 483.14999389648 96356.887512207 43988783.68788
44375	27432965 5782 226039 231193 1751 1792.5 167 0.973 12.553400930962 570.00382524306 3466.202304098
44374	27438747 5636 226039 231193 1751 1792.5 167 -3.2237567901611 2.5000019073486 42.754949569702 348.57518915052
44373	27444383 5889 225996 231193 1750.75 1792.5 168 5.6500000953674 16.89999961853 2179.6377978325 30802.041723248
44372	27450272 6226 225955 231193 1750.5 1792.5 169 486.85000610352 785.82187652588 96355.068244934 56640634.64131
44371	27456498 6248 225955 231193 1750.5 1792.5 169 238.45111083984 483.14999389648 74064.233154297 33346988.318402
vector 44455  IntersectionExampleScenario.node[770].veinsmobility  posx  ETV
vector 44456  IntersectionExampleScenario.node[770].veinsmobility  posy  ETV
vector 44457  IntersectionExampleScenario.node[770].veinsmobility  speed  ETV
vector 44458  IntersectionExampleScenario.node[770].veinsmobility  acceleration  ETV
vector 44459  IntersectionExampleScenario.node[770].veinsmobility  co2emission  ETV
vector 44462  IntersectionExampleScenario.node[771].veinsmobility  posx  ETV
vector 44463  IntersectionExampleScenario.node[771].veinsmobility  posy  ETV
vector 44464  IntersectionExampleScenario.node[771].veinsmobility  speed  ETV
vector 44465  IntersectionExampleScenario.node[771].veinsmobility  acceleration  ETV
vector 44466  IntersectionExampleScenario.node[771].veinsmobility  co2emission  ETV
44354	27463558 7783 224433 231607 1740.5 1799 235 0.973 11.648172402475 611.23507228666 3032.0750518902
44353	27471341 7244 224433 231607 1740.5 1799 235 -29.890670776367 4 38.341367721558 1269.7488273568
44352	27478585 7419 224394 231607 1740.25 1799 236 0 15.64999961853 2205.4602174759 31546.11220669
44351	27486004 8760 224355 231607 1740 1799 237 483.14999389648 733.70735168457 122944.70591736 64887251.07345
44350	27494764 8743 224355 231607 1740 1799 237 179.81719970703 486.85000610352 99690.778076172 44065458.784343
44319	27503507 9025 222685 231667 1729 1800 285 0.973 11.648172402475 675.38725185182 3647.4451923635
44318	27512532 8831 222685 231667 1729 1800 285 -7.9344120025635 4 38.301244735718 742.78317146813
44317	27521363 9022 222646 231667 1728.75 1800 286 0 15.64999961853 1454.5532898605 16834.279779062
44316	27530385 10580 222607 231667 1728.5 1800 287 184.17810058594 486.85000610352 119031.22311401 51264587.379393
44315	27540965 10618 222607 231667 1728.5 1800 287 423.98434448242 486.85009765625 139099.9871521 67441043.812078
44361	27551583 8039 224847 231667 1743.25 1800 228 0.973 11.36141391502 590.27846912527 2831.8662656427
44360	27559622 8199 224847 231667 1743.25 1800 228 -4.5 2.5000004768372 37.32285118103 424.61698678759
44359	27567821 8163 224808 231667 1743 1800 229 0 15.25 2191.3029482039 29850.339241615
44358	27575984 8504 224769 231667 1742.75 1800 230 251.34606933594 483.14999389648 103744.15722656 47695327.262747
44357	27584488 8482 224769 231667 1742.75 1800 230 167.77423095703 483.14999389648 94370.951324463 40962872.949719
44368	27592970 7103 225526 231667 1747.75 1800 210 0.973 11.54047740176 563.32903635656 2866.0667690322
44367	27600073 7493 225526 231667 1747.75 1800 210 -3.9263763427734 2.5 37.32285118103 360.53523145431
44366	27607566 7604 225487 231667 1747.5 1800 211 0 15.5 2094.8863334283 27285.423710015
44365	27615170 7844 225448 231667 1747.25 1800 212 483.14999389648 483.14999389648 102427.79870605 49487990.31966
44364	27623014 7814 225448 231667 1747.25 1800 212 173.49267578125 692.54454040527 91353.931777954 42982216.497327
44382	27630828 6246 226082 231667 1751.25 1800 196 0.973 11.200708441096 517.82101944906 2906.9712699975
44381	27637074 5918 226082 231667 1751.25 1800 196 -4.5 2.5 36.144674301147 492.24326024465
44380	27642992 6147 226039 231667 1751 1800 197 0 15.02499961853 1401.5612493269 17067.486552593
44379	27649139 7299 225996 231667 1750.75 1800 198 184.17810058594 530.04187011719 79687.989685059 33870495.610217
44378	27656438 7325 225996 231667 1750.75 1800 198 486.85000610352 486.85000610352 96396.301208496 46930539.831713
44389	27663763 6549 226322 231667 1752.75 1800 190 0.973 11.450879080643 523.77985048099 2737.3447714925
44388	27670312 6764 226322 231667 1752.75 1800 190 -4.5 2.5 38.341402053833 403.84801497295
44387	27677076 6772 226281 231667 1752.5 1800 191 0 15.375 1898.1155976877 24615.355075325
44386	27683848 7100 226240 231667 1752.25 1800 192 483.14999389648 651.62373352051 96652.394500732 49010103.933971
44385	27690948 7072 226240 231667 1752.25 1800 192 180.10339355469 486.88061523438 76653.469360352 32393220.522322
44396	27698020 6011 226944 231667 1757 1800 173 0.973 12.099024792222 556.88193475909 3092.9713143398
44395	27704031 5966 226944 231667 1757 1800 173 -8.4824285507202 4 40.887662887573 534.68601287334
44394	27709997 5902 226908 231667 1756.75 1800 174 0 16.27499961853 2078.4092628956 30118.119306038
44393	27715899 6462 226870 231667 1756.5 1800 175 486.85000610352 707.66200256348 91572.859954834 48617153.098807
44392	27722361 6460 226870 231667 1756.5 1800 175 486.75677490234 785.82187652588 98983.413703918 57771270.125333
44403	27728821 5883 226944 231667 1757 1800 173 0.973 11.200708441096 413.93117955721 1910.2918559653
44402	27734704 6187 226944 231667 1757 1800 173 -3.7061862945557 2.5 22.39999961853 323.53709040061
44401	27740891 6273 226908 231667 1756.75 1800 174 0 15.395741462708 1262.5001315866 15730.227177331
44400	27747164 6423 226870 231667 1756.5 1800 175 184.17810058594 496.63781738281 68468.601135254 28317687.205843
44399	27753587 6474 226870 231667 1756.5 1800 175 486.85000610352 486.85000610352 85198.751068115 41479012.477524
44410	27760061 5852 227158 231667 1758.5 1800 167 0.96333723109819 12.099024792222 544.11417263828 3149.5014846986
44409	27765913 5898 227158 231667 1758.5 1800 167 -4.5 2.5000019073486 40.208654403687 439.96679147505
44408	27771811 6067 227121 231667 1758.25 1800 168 0.88672161102295 16.27499961853 2131.4893112183 30566.591727231
44407	27777878 6251 227084 231667 1758 1800 169 486.85000610352 486.85000610352 82277.651031494 40056874.906866
44406	27784129 6240 227084 231667 1758 1800 169 278.25854492188 806.11563110352 92316.324028015 54096669.514632
44417	27790369 5294 227780 231667 1763 1800 149 0.973 11.90022389248 494.51654806301 2862.709947828
44416	27795663 5114 227780 231667 1763 1800 149 -4.5 2.5 43.755306243896 342.0762722861
44415	27800777 5260 227743 231667 1762.75 1800 150 4.6364459991455 16 1823.6210899353 23993.766599647
44414	27806037 5585 227708 231667 1762.5 1800 151 345.89868164062 486.85000610352 70812.19430542 33410486.113335
44413	27811622 5574 227708 231667 1762.5 1800 151 483.14999389648 798.41251373291 90035.668678284 55498149.327704
44424	27817196 5197 227817 231667 1763.25 1800 148 0.973 11.648172402475 499.65798634354 2909.031731622
44423	27822393 5179 227817 231667 1763.25 1800 148 -4.5 2.5 39.699392318726 332.90918256454
44422	27827572 5223 227780 231667 1763 1800 149 5.6500000953674 15.64999961853 1869.4382386208 25246.900585
44421	27832795 5540 227743 231667 1762.75 1800 150 311.84063720703 486.85000610352 68923.180969238 32033087.840659
44420	27838335 5536 227743 231667 1762.75 1800 150 482.96917724609 777.1234588623 86498.413116455 51376822.225052
44431	27843871 4289 228303 231667 1766.75 1800 134 0.973 12.099024792222 342.02807680089 1828.1208188224
44430	27848160 4747 228303 231667 1766.75 1800 134 -3.9933433532715 2.5 5.3999996185303 304.82044188363
44429	27852907 4919 228268 231667 1766.5 1800 135 0 16.27499961853 1164.7731895447 14088.470646567
44428	27857826 4992 228233 231667 1766.25 1800 136 184.17810058594 472.90719604492 49922.504425049 19480777.879182
44427	27862818 5032 228233 231667 1766.25 1800 136 486.85000610352 487.16452026367 66211.990905762 32235498.189574
44438	27867850 3896 228773 231667 1770.25 1800 120 0.973 12.099024792222 303.3299736675 1612.9427963205
44437	27871746 3867 228773 231667 1770.25 1800 120 -6.7389054298401 2.5 -22.60000038147 323.03859295425
44436	27875613 3963 228740 231667 1770 1800 121 0 16.27499961853 1147.6296318769 16689.976790024
44435	27879576 4510 228706 231667 1769.75 1800 122 498.39999389648 785.82187652588 73280.244987488 45300012.633751
44434	27884086 4513 228706 231667 1769.75 1800 122 483.14999389648 483.14999389648 58944.299255371 28478937.825465
44445	27888599 3551 229131 231667 1773 1800 109 0.973 12.099024792222 299.23765650646 1688.3819170413
44444	27892150 3795 229131 231667 1773 1800 109 -4.0287065505981 2.5 6.2963848114014 281.43231452221
44443	27895945 4041 229098 231667 1772.75 1800 110 1.8432961702347 16.27499961853 1092.3107988834 13781.686821582
44442	27899986 4079 229065 231667 1772.5 1800 111 184.17810058594 455.15914916992 38565.511474609 14310165.606916
44441	27904065 4106 229065 231667 1772.5 1800 111 486.85000610352 486.85000610352 54040.35067749 26309545.057172
44452	27908171 2954 229751 231667 1778 1800 89 0.973 11.200708441096 238.6442138921 1275.8887325822
44451	27911125 3198 229751 231667 1778 1800 89 -4.5 2.5 -11.3825340271 218.95040321993
44450	27914323 3312 229720 231667 1777.75 1800 90 2.4379334449768 15.02499961853 1030.7007241249 13152.610425595
44449	27917635 3336 229689 231667 1777.5 1800 91 184.17810058594 440.99908447266 29317.515380859 10106428.249999
44448	27920971 3366 229689 231667 1777.5 1800 91 486.85000610352 486.85000610352 44303.35055542 21569086.488312
44459	27924337 737 231362 231667 1795.25 1800 20 1.0628769479023 11.200708441096 129.98260319999 1064.3978756949
44458	27925074 583 231362 231667 1795.25 1800 20 -0.29891967773438 2.5 36.588064193726 93.94272343026
44457	27925657 766 231345 231667 1795 1800 21 5.6500000953674 15.02499961853 239.71435165405 2947.174450185
44456	27926423 796 231328 231667 1794.75 1800 22 184.17810058594 239.16680908203 4537.333190918 942399.31945994
44455	27927219 813 231328 231667 1794.75 1800 22 486.85000610352 486.85000610352 10710.700134277 5214504.4257459
44466	27928032 551 231450 231667 1796.5 1800 15 1.8853453884123 10.756497587458 113.28700162068 931.27234270928
44465	27928583 401 231450 231667 1796.5 1800 15 -0.055862426757812 2.5 34.944135665894 87.503111073984
44464	27928984 584 231432 231667 1796.25 1800 16 5.6500000953674 14.39999961853 164.76103019714 1823.8422599921
44463	27929568 627 231413 231667 1796 1800 17 483.14999389648 483.14999389648 8213.5498962402 3968376.5822369
44462	27930195 610 231413 231667 1796 1800 17 184.17810058594 220.59997558594 3378.6529541016 673752.85246629
39061	27930805 642 0 231666 0 1800 31 0 30 682 15980
39062	27931447 661 0 231666 0 1800 31 0 277 4264 795142
