version 2
run nodebug-34-20200606-13:24:53-21956
attr configname nodebug
attr datetime 20200606-13:24:53
attr experiment nodebug
attr inifile omnetpp.ini
attr iterationvars ""
attr iterationvars2 $repetition=34
attr measurement ""
attr network "\"org.car2x.veins.modules.application.ExtTraCIScenarioManagerLaunchd.IntersectionExampleScenario\""
attr processid 21956
attr repetition 34
attr replication #34
attr resultdir results
attr runnumber 34
attr seedset 34
param **.coreDebug false
param **.debug false
param *.**.nic.mac1609_4.bitrate 18Mbps
param *.**.nic.mac1609_4.txPower 20mW
param *.**.nic.mac1609_4.useServiceChannel false
param *.**.nic.phy80211p.analogueModels "xmldoc(\"config.xml\")"
param *.**.nic.phy80211p.decider "xmldoc(\"config.xml\")"
param *.**.nic.phy80211p.sensitivity -89dBm
param *.**.nic.phy80211p.thermalNoise -110dBm
param *.**.nic.phy80211p.usePropagationDelay true
param *.**.nic.phy80211p.useThermalNoise true
param *.annotations.draw false
param *.connectionManager.alpha 2.0
param *.connectionManager.carrierFrequency "5.890e9 Hz"
param *.connectionManager.pMax 20mW
param *.connectionManager.sat -89dBm
param *.connectionManager.sendDirect true
param *.manager.autoShutdown true
param *.manager.host "\"localhost\""
param *.manager.launchConfig "xmldoc(\"paramics.launchd.xml\")"
param *.manager.margin 25
param *.manager.moduleDisplayString "\"\""
param *.manager.moduleName "\"node\""
param *.manager.moduleType "\"org.car2x.veins.nodes.Car\""
param *.manager.port 9999
param *.manager.updateInterval 250ms
param *.node[*0].veinsmobility.accidentCount 0
param *.node[*0].veinsmobility.accidentDuration 30s
param *.node[*0].veinsmobility.accidentStart 75s
param *.node[*].appl.LiderSelectZoneRadio 55.0
param *.node[*].appl.ShareDataZoneRadio 110.0
param *.node[*].appl.TiempoSemaforo 30.0
param *.node[*].appl.beaconInterval 1s
param *.node[*].appl.beaconPriority 3
param *.node[*].appl.dataOnSch false
param *.node[*].appl.dataPriority 2
param *.node[*].appl.debug false
param *.node[*].appl.headerLength "256 bit"
param *.node[*].appl.maxOffset 0.005s
param *.node[*].appl.sendBeacons false
param *.node[*].appl.sendData true
param *.node[*].applType "\"Dummy\""
param *.node[*].mobilityType "\"TraCIMobility\""
param *.node[*].mobilityType.debug true
param *.node[*].veinsmobility.x 0
param *.node[*].veinsmobility.y 0
param *.node[*].veinsmobility.z 1.895
param *.node[*].veinsmobilityType "\"org.car2x.veins.modules.mobility.traci.TraCIMobility\""
param *.node[*].veinsmobilityType.debug true
param *.playgroundSizeX 8500m
param *.playgroundSizeY 8500m
param *.playgroundSizeZ 50m
param *.world.use2D false
param *.world.useTorus false

scalar IntersectionExampleScenario.node[1].appl 	VehicleRemoved 	0
scalar IntersectionExampleScenario.node[1].appl 	ArrivedAtDest 	1
scalar IntersectionExampleScenario.node[1].appl 	IntersectionEnterTime 	1.5
scalar IntersectionExampleScenario.node[1].appl 	IntersectionExitTime 	24.281635806808
scalar IntersectionExampleScenario.node[1].appl 	NumberOfCollisions 	0
scalar IntersectionExampleScenario.node[1].nic.phy80211p 	busyTime 	0
scalar IntersectionExampleScenario.node[1].nic.mac1609_4 	ReceivedUnicastPackets 	0
scalar IntersectionExampleScenario.node[1].nic.mac1609_4 	ReceivedBroadcasts 	0
scalar IntersectionExampleScenario.node[1].nic.mac1609_4 	SentPackets 	0
scalar IntersectionExampleScenario.node[1].nic.mac1609_4 	SNIRLostPackets 	0
scalar IntersectionExampleScenario.node[1].nic.mac1609_4 	RXTXLostPackets 	0
scalar IntersectionExampleScenario.node[1].nic.mac1609_4 	TotalLostPackets 	0
scalar IntersectionExampleScenario.node[1].nic.mac1609_4 	DroppedPacketsInMac 	0
scalar IntersectionExampleScenario.node[1].nic.mac1609_4 	TooLittleTime 	0
scalar IntersectionExampleScenario.node[1].nic.mac1609_4 	TimesIntoBackoff 	0
scalar IntersectionExampleScenario.node[1].nic.mac1609_4 	SlotsBackoff 	0
scalar IntersectionExampleScenario.node[1].nic.mac1609_4 	NumInternalContention 	0
scalar IntersectionExampleScenario.node[1].nic.mac1609_4 	totalBusyTime 	0
scalar IntersectionExampleScenario.node[1].veinsmobility 	startTime 	1.5
scalar IntersectionExampleScenario.node[1].veinsmobility 	totalTime 	38.75
scalar IntersectionExampleScenario.node[1].veinsmobility 	stopTime 	40.5
scalar IntersectionExampleScenario.node[1].veinsmobility 	minSpeed 	5.6500000953674
scalar IntersectionExampleScenario.node[1].veinsmobility 	maxSpeed 	15.64999961853
scalar IntersectionExampleScenario.node[1].veinsmobility 	totalDistance 	553.98718261719
scalar IntersectionExampleScenario.node[1].veinsmobility 	totalCO2Emission 	118.09265819258
scalar IntersectionExampleScenario.node[0].appl 	VehicleRemoved 	0
scalar IntersectionExampleScenario.node[0].appl 	ArrivedAtDest 	1
scalar IntersectionExampleScenario.node[0].appl 	IntersectionEnterTime 	0.25
scalar IntersectionExampleScenario.node[0].appl 	IntersectionExitTime 	24.32911158551
scalar IntersectionExampleScenario.node[0].appl 	NumberOfCollisions 	0
scalar IntersectionExampleScenario.node[0].nic.phy80211p 	busyTime 	0
scalar IntersectionExampleScenario.node[0].nic.mac1609_4 	ReceivedUnicastPackets 	0
scalar IntersectionExampleScenario.node[0].nic.mac1609_4 	ReceivedBroadcasts 	0
scalar IntersectionExampleScenario.node[0].nic.mac1609_4 	SentPackets 	0
scalar IntersectionExampleScenario.node[0].nic.mac1609_4 	SNIRLostPackets 	0
scalar IntersectionExampleScenario.node[0].nic.mac1609_4 	RXTXLostPackets 	0
scalar IntersectionExampleScenario.node[0].nic.mac1609_4 	TotalLostPackets 	0
scalar IntersectionExampleScenario.node[0].nic.mac1609_4 	DroppedPacketsInMac 	0
scalar IntersectionExampleScenario.node[0].nic.mac1609_4 	TooLittleTime 	0
scalar IntersectionExampleScenario.node[0].nic.mac1609_4 	TimesIntoBackoff 	0
scalar IntersectionExampleScenario.node[0].nic.mac1609_4 	SlotsBackoff 	0
scalar IntersectionExampleScenario.node[0].nic.mac1609_4 	NumInternalContention 	0
scalar IntersectionExampleScenario.node[0].nic.mac1609_4 	totalBusyTime 	0
scalar IntersectionExampleScenario.node[0].veinsmobility 	startTime 	0.25
scalar IntersectionExampleScenario.node[0].veinsmobility 	totalTime 	41
scalar IntersectionExampleScenario.node[0].veinsmobility 	stopTime 	41.5
scalar IntersectionExampleScenario.node[0].veinsmobility 	minSpeed 	5.6500000953674
scalar IntersectionExampleScenario.node[0].veinsmobility 	maxSpeed 	15.25
scalar IntersectionExampleScenario.node[0].veinsmobility 	totalDistance 	545.28062145092
scalar IntersectionExampleScenario.node[0].veinsmobility 	totalCO2Emission 	125.05072921458
scalar IntersectionExampleScenario.node[4].appl 	VehicleRemoved 	0
scalar IntersectionExampleScenario.node[4].appl 	ArrivedAtDest 	1
scalar IntersectionExampleScenario.node[4].appl 	IntersectionEnterTime 	4.25
scalar IntersectionExampleScenario.node[4].appl 	IntersectionExitTime 	26.767288575182
scalar IntersectionExampleScenario.node[4].appl 	NumberOfCollisions 	0
scalar IntersectionExampleScenario.node[4].nic.phy80211p 	busyTime 	0
scalar IntersectionExampleScenario.node[4].nic.mac1609_4 	ReceivedUnicastPackets 	0
scalar IntersectionExampleScenario.node[4].nic.mac1609_4 	ReceivedBroadcasts 	0
scalar IntersectionExampleScenario.node[4].nic.mac1609_4 	SentPackets 	0
scalar IntersectionExampleScenario.node[4].nic.mac1609_4 	SNIRLostPackets 	0
scalar IntersectionExampleScenario.node[4].nic.mac1609_4 	RXTXLostPackets 	0
scalar IntersectionExampleScenario.node[4].nic.mac1609_4 	TotalLostPackets 	0
scalar IntersectionExampleScenario.node[4].nic.mac1609_4 	DroppedPacketsInMac 	0
scalar IntersectionExampleScenario.node[4].nic.mac1609_4 	TooLittleTime 	0
scalar IntersectionExampleScenario.node[4].nic.mac1609_4 	TimesIntoBackoff 	0
scalar IntersectionExampleScenario.node[4].nic.mac1609_4 	SlotsBackoff 	0
scalar IntersectionExampleScenario.node[4].nic.mac1609_4 	NumInternalContention 	0
scalar IntersectionExampleScenario.node[4].nic.mac1609_4 	totalBusyTime 	0
scalar IntersectionExampleScenario.node[4].veinsmobility 	startTime 	4.25
scalar IntersectionExampleScenario.node[4].veinsmobility 	totalTime 	38.75
scalar IntersectionExampleScenario.node[4].veinsmobility 	stopTime 	43.25
scalar IntersectionExampleScenario.node[4].veinsmobility 	minSpeed 	5.6500000953674
scalar IntersectionExampleScenario.node[4].veinsmobility 	maxSpeed 	15.02499961853
scalar IntersectionExampleScenario.node[4].veinsmobility 	totalDistance 	536.77364349365
scalar IntersectionExampleScenario.node[4].veinsmobility 	totalCO2Emission 	120.82200326916
scalar IntersectionExampleScenario.node[3].appl 	VehicleRemoved 	0
scalar IntersectionExampleScenario.node[3].appl 	ArrivedAtDest 	1
scalar IntersectionExampleScenario.node[3].appl 	IntersectionEnterTime 	4
scalar IntersectionExampleScenario.node[3].appl 	IntersectionExitTime 	29.103313916043
scalar IntersectionExampleScenario.node[3].appl 	NumberOfCollisions 	0
scalar IntersectionExampleScenario.node[3].nic.phy80211p 	busyTime 	0
scalar IntersectionExampleScenario.node[3].nic.mac1609_4 	ReceivedUnicastPackets 	0
scalar IntersectionExampleScenario.node[3].nic.mac1609_4 	ReceivedBroadcasts 	0
scalar IntersectionExampleScenario.node[3].nic.mac1609_4 	SentPackets 	0
scalar IntersectionExampleScenario.node[3].nic.mac1609_4 	SNIRLostPackets 	0
scalar IntersectionExampleScenario.node[3].nic.mac1609_4 	RXTXLostPackets 	0
scalar IntersectionExampleScenario.node[3].nic.mac1609_4 	TotalLostPackets 	0
scalar IntersectionExampleScenario.node[3].nic.mac1609_4 	DroppedPacketsInMac 	0
scalar IntersectionExampleScenario.node[3].nic.mac1609_4 	TooLittleTime 	0
scalar IntersectionExampleScenario.node[3].nic.mac1609_4 	TimesIntoBackoff 	0
scalar IntersectionExampleScenario.node[3].nic.mac1609_4 	SlotsBackoff 	0
scalar IntersectionExampleScenario.node[3].nic.mac1609_4 	NumInternalContention 	0
scalar IntersectionExampleScenario.node[3].nic.mac1609_4 	totalBusyTime 	0
scalar IntersectionExampleScenario.node[3].veinsmobility 	startTime 	4
scalar IntersectionExampleScenario.node[3].veinsmobility 	totalTime 	41.5
scalar IntersectionExampleScenario.node[3].veinsmobility 	stopTime 	45.75
scalar IntersectionExampleScenario.node[3].veinsmobility 	minSpeed 	4.6842041015625
scalar IntersectionExampleScenario.node[3].veinsmobility 	maxSpeed 	15.297723770142
scalar IntersectionExampleScenario.node[3].veinsmobility 	totalDistance 	562.09690093994
scalar IntersectionExampleScenario.node[3].veinsmobility 	totalCO2Emission 	123.15680961216
scalar IntersectionExampleScenario.node[6].appl 	VehicleRemoved 	0
scalar IntersectionExampleScenario.node[6].appl 	ArrivedAtDest 	1
scalar IntersectionExampleScenario.node[6].appl 	IntersectionEnterTime 	8.75
scalar IntersectionExampleScenario.node[6].appl 	IntersectionExitTime 	31.519616803853
scalar IntersectionExampleScenario.node[6].appl 	NumberOfCollisions 	0
scalar IntersectionExampleScenario.node[6].nic.phy80211p 	busyTime 	0
scalar IntersectionExampleScenario.node[6].nic.mac1609_4 	ReceivedUnicastPackets 	0
scalar IntersectionExampleScenario.node[6].nic.mac1609_4 	ReceivedBroadcasts 	0
scalar IntersectionExampleScenario.node[6].nic.mac1609_4 	SentPackets 	0
scalar IntersectionExampleScenario.node[6].nic.mac1609_4 	SNIRLostPackets 	0
scalar IntersectionExampleScenario.node[6].nic.mac1609_4 	RXTXLostPackets 	0
scalar IntersectionExampleScenario.node[6].nic.mac1609_4 	TotalLostPackets 	0
scalar IntersectionExampleScenario.node[6].nic.mac1609_4 	DroppedPacketsInMac 	0
scalar IntersectionExampleScenario.node[6].nic.mac1609_4 	TooLittleTime 	0
scalar IntersectionExampleScenario.node[6].nic.mac1609_4 	TimesIntoBackoff 	0
scalar IntersectionExampleScenario.node[6].nic.mac1609_4 	SlotsBackoff 	0
scalar IntersectionExampleScenario.node[6].nic.mac1609_4 	NumInternalContention 	0
scalar IntersectionExampleScenario.node[6].nic.mac1609_4 	totalBusyTime 	0
scalar IntersectionExampleScenario.node[6].veinsmobility 	startTime 	8.75
scalar IntersectionExampleScenario.node[6].veinsmobility 	totalTime 	38.75
scalar IntersectionExampleScenario.node[6].veinsmobility 	stopTime 	47.75
scalar IntersectionExampleScenario.node[6].veinsmobility 	minSpeed 	5.6500000953674
scalar IntersectionExampleScenario.node[6].veinsmobility 	maxSpeed 	16.128105163574
scalar IntersectionExampleScenario.node[6].veinsmobility 	totalDistance 	552.61067907133
scalar IntersectionExampleScenario.node[6].veinsmobility 	totalCO2Emission 	126.28298111743
scalar IntersectionExampleScenario.node[7].appl 	VehicleRemoved 	0
scalar IntersectionExampleScenario.node[7].appl 	ArrivedAtDest 	1
scalar IntersectionExampleScenario.node[7].appl 	IntersectionEnterTime 	10
scalar IntersectionExampleScenario.node[7].appl 	IntersectionExitTime 	33.064349756547
scalar IntersectionExampleScenario.node[7].appl 	NumberOfCollisions 	0
scalar IntersectionExampleScenario.node[7].nic.phy80211p 	busyTime 	0
scalar IntersectionExampleScenario.node[7].nic.mac1609_4 	ReceivedUnicastPackets 	0
scalar IntersectionExampleScenario.node[7].nic.mac1609_4 	ReceivedBroadcasts 	0
scalar IntersectionExampleScenario.node[7].nic.mac1609_4 	SentPackets 	0
scalar IntersectionExampleScenario.node[7].nic.mac1609_4 	SNIRLostPackets 	0
scalar IntersectionExampleScenario.node[7].nic.mac1609_4 	RXTXLostPackets 	0
scalar IntersectionExampleScenario.node[7].nic.mac1609_4 	TotalLostPackets 	0
scalar IntersectionExampleScenario.node[7].nic.mac1609_4 	DroppedPacketsInMac 	0
scalar IntersectionExampleScenario.node[7].nic.mac1609_4 	TooLittleTime 	0
scalar IntersectionExampleScenario.node[7].nic.mac1609_4 	TimesIntoBackoff 	0
scalar IntersectionExampleScenario.node[7].nic.mac1609_4 	SlotsBackoff 	0
scalar IntersectionExampleScenario.node[7].nic.mac1609_4 	NumInternalContention 	0
scalar IntersectionExampleScenario.node[7].nic.mac1609_4 	totalBusyTime 	0
scalar IntersectionExampleScenario.node[7].veinsmobility 	startTime 	10
scalar IntersectionExampleScenario.node[7].veinsmobility 	totalTime 	39.5
scalar IntersectionExampleScenario.node[7].veinsmobility 	stopTime 	49.75
scalar IntersectionExampleScenario.node[7].veinsmobility 	minSpeed 	5.6500000953674
scalar IntersectionExampleScenario.node[7].veinsmobility 	maxSpeed 	15.852250099182
scalar IntersectionExampleScenario.node[7].veinsmobility 	totalDistance 	545.82246964669
scalar IntersectionExampleScenario.node[7].veinsmobility 	totalCO2Emission 	128.77347026882
scalar IntersectionExampleScenario.node[5].appl 	VehicleRemoved 	0
scalar IntersectionExampleScenario.node[5].appl 	ArrivedAtDest 	1
scalar IntersectionExampleScenario.node[5].appl 	IntersectionEnterTime 	5.5
scalar IntersectionExampleScenario.node[5].appl 	IntersectionExitTime 	36.298196947027
scalar IntersectionExampleScenario.node[5].appl 	NumberOfCollisions 	0
scalar IntersectionExampleScenario.node[5].nic.phy80211p 	busyTime 	0
scalar IntersectionExampleScenario.node[5].nic.mac1609_4 	ReceivedUnicastPackets 	0
scalar IntersectionExampleScenario.node[5].nic.mac1609_4 	ReceivedBroadcasts 	0
scalar IntersectionExampleScenario.node[5].nic.mac1609_4 	SentPackets 	0
scalar IntersectionExampleScenario.node[5].nic.mac1609_4 	SNIRLostPackets 	0
scalar IntersectionExampleScenario.node[5].nic.mac1609_4 	RXTXLostPackets 	0
scalar IntersectionExampleScenario.node[5].nic.mac1609_4 	TotalLostPackets 	0
scalar IntersectionExampleScenario.node[5].nic.mac1609_4 	DroppedPacketsInMac 	0
scalar IntersectionExampleScenario.node[5].nic.mac1609_4 	TooLittleTime 	0
scalar IntersectionExampleScenario.node[5].nic.mac1609_4 	TimesIntoBackoff 	0
scalar IntersectionExampleScenario.node[5].nic.mac1609_4 	SlotsBackoff 	0
scalar IntersectionExampleScenario.node[5].nic.mac1609_4 	NumInternalContention 	0
scalar IntersectionExampleScenario.node[5].nic.mac1609_4 	totalBusyTime 	0
scalar IntersectionExampleScenario.node[5].veinsmobility 	startTime 	5.5
scalar IntersectionExampleScenario.node[5].veinsmobility 	totalTime 	46.5
scalar IntersectionExampleScenario.node[5].veinsmobility 	stopTime 	52.25
scalar IntersectionExampleScenario.node[5].veinsmobility 	minSpeed 	0
scalar IntersectionExampleScenario.node[5].veinsmobility 	maxSpeed 	16
scalar IntersectionExampleScenario.node[5].veinsmobility 	totalDistance 	554.25534057617
scalar IntersectionExampleScenario.node[5].veinsmobility 	totalCO2Emission 	143.35381684287
scalar IntersectionExampleScenario.node[2].appl 	VehicleRemoved 	0
scalar IntersectionExampleScenario.node[2].appl 	ArrivedAtDest 	1
scalar IntersectionExampleScenario.node[2].appl 	IntersectionEnterTime 	2.75
scalar IntersectionExampleScenario.node[2].appl 	IntersectionExitTime 	46.331059097458
scalar IntersectionExampleScenario.node[2].appl 	NumberOfCollisions 	0
scalar IntersectionExampleScenario.node[2].nic.phy80211p 	busyTime 	0
scalar IntersectionExampleScenario.node[2].nic.mac1609_4 	ReceivedUnicastPackets 	0
scalar IntersectionExampleScenario.node[2].nic.mac1609_4 	ReceivedBroadcasts 	0
scalar IntersectionExampleScenario.node[2].nic.mac1609_4 	SentPackets 	0
scalar IntersectionExampleScenario.node[2].nic.mac1609_4 	SNIRLostPackets 	0
scalar IntersectionExampleScenario.node[2].nic.mac1609_4 	RXTXLostPackets 	0
scalar IntersectionExampleScenario.node[2].nic.mac1609_4 	TotalLostPackets 	0
scalar IntersectionExampleScenario.node[2].nic.mac1609_4 	DroppedPacketsInMac 	0
scalar IntersectionExampleScenario.node[2].nic.mac1609_4 	TooLittleTime 	0
scalar IntersectionExampleScenario.node[2].nic.mac1609_4 	TimesIntoBackoff 	0
scalar IntersectionExampleScenario.node[2].nic.mac1609_4 	SlotsBackoff 	0
scalar IntersectionExampleScenario.node[2].nic.mac1609_4 	NumInternalContention 	0
scalar IntersectionExampleScenario.node[2].nic.mac1609_4 	totalBusyTime 	0
scalar IntersectionExampleScenario.node[2].veinsmobility 	startTime 	2.75
scalar IntersectionExampleScenario.node[2].veinsmobility 	totalTime 	59.5
scalar IntersectionExampleScenario.node[2].veinsmobility 	stopTime 	62.5
scalar IntersectionExampleScenario.node[2].veinsmobility 	minSpeed 	0
scalar IntersectionExampleScenario.node[2].veinsmobility 	maxSpeed 	15.64999961853
scalar IntersectionExampleScenario.node[2].veinsmobility 	totalDistance 	553.04892730713
scalar IntersectionExampleScenario.node[2].veinsmobility 	totalCO2Emission 	152.09397809001
scalar IntersectionExampleScenario.node[9].appl 	VehicleRemoved 	0
scalar IntersectionExampleScenario.node[9].appl 	ArrivedAtDest 	1
scalar IntersectionExampleScenario.node[9].appl 	IntersectionEnterTime 	19
scalar IntersectionExampleScenario.node[9].appl 	IntersectionExitTime 	47.807698137534
scalar IntersectionExampleScenario.node[9].appl 	NumberOfCollisions 	0
scalar IntersectionExampleScenario.node[9].nic.phy80211p 	busyTime 	0
scalar IntersectionExampleScenario.node[9].nic.mac1609_4 	ReceivedUnicastPackets 	0
scalar IntersectionExampleScenario.node[9].nic.mac1609_4 	ReceivedBroadcasts 	0
scalar IntersectionExampleScenario.node[9].nic.mac1609_4 	SentPackets 	0
scalar IntersectionExampleScenario.node[9].nic.mac1609_4 	SNIRLostPackets 	0
scalar IntersectionExampleScenario.node[9].nic.mac1609_4 	RXTXLostPackets 	0
scalar IntersectionExampleScenario.node[9].nic.mac1609_4 	TotalLostPackets 	0
scalar IntersectionExampleScenario.node[9].nic.mac1609_4 	DroppedPacketsInMac 	0
scalar IntersectionExampleScenario.node[9].nic.mac1609_4 	TooLittleTime 	0
scalar IntersectionExampleScenario.node[9].nic.mac1609_4 	TimesIntoBackoff 	0
scalar IntersectionExampleScenario.node[9].nic.mac1609_4 	SlotsBackoff 	0
scalar IntersectionExampleScenario.node[9].nic.mac1609_4 	NumInternalContention 	0
scalar IntersectionExampleScenario.node[9].nic.mac1609_4 	totalBusyTime 	0
scalar IntersectionExampleScenario.node[9].veinsmobility 	startTime 	19
scalar IntersectionExampleScenario.node[9].veinsmobility 	totalTime 	44.75
scalar IntersectionExampleScenario.node[9].veinsmobility 	stopTime 	64
scalar IntersectionExampleScenario.node[9].veinsmobility 	minSpeed 	3.2104225158691
scalar IntersectionExampleScenario.node[9].veinsmobility 	maxSpeed 	16.5
scalar IntersectionExampleScenario.node[9].veinsmobility 	totalDistance 	542.79220608491
scalar IntersectionExampleScenario.node[9].veinsmobility 	totalCO2Emission 	140.96524341023
scalar IntersectionExampleScenario.node[10].appl 	VehicleRemoved 	0
scalar IntersectionExampleScenario.node[10].appl 	ArrivedAtDest 	1
scalar IntersectionExampleScenario.node[10].appl 	IntersectionEnterTime 	19.5
scalar IntersectionExampleScenario.node[10].appl 	IntersectionExitTime 	50.855842601275
scalar IntersectionExampleScenario.node[10].appl 	NumberOfCollisions 	0
scalar IntersectionExampleScenario.node[10].nic.phy80211p 	busyTime 	0
scalar IntersectionExampleScenario.node[10].nic.mac1609_4 	ReceivedUnicastPackets 	0
scalar IntersectionExampleScenario.node[10].nic.mac1609_4 	ReceivedBroadcasts 	0
scalar IntersectionExampleScenario.node[10].nic.mac1609_4 	SentPackets 	0
scalar IntersectionExampleScenario.node[10].nic.mac1609_4 	SNIRLostPackets 	0
scalar IntersectionExampleScenario.node[10].nic.mac1609_4 	RXTXLostPackets 	0
scalar IntersectionExampleScenario.node[10].nic.mac1609_4 	TotalLostPackets 	0
scalar IntersectionExampleScenario.node[10].nic.mac1609_4 	DroppedPacketsInMac 	0
scalar IntersectionExampleScenario.node[10].nic.mac1609_4 	TooLittleTime 	0
scalar IntersectionExampleScenario.node[10].nic.mac1609_4 	TimesIntoBackoff 	0
scalar IntersectionExampleScenario.node[10].nic.mac1609_4 	SlotsBackoff 	0
scalar IntersectionExampleScenario.node[10].nic.mac1609_4 	NumInternalContention 	0
scalar IntersectionExampleScenario.node[10].nic.mac1609_4 	totalBusyTime 	0
scalar IntersectionExampleScenario.node[10].veinsmobility 	startTime 	19.5
scalar IntersectionExampleScenario.node[10].veinsmobility 	totalTime 	48
scalar IntersectionExampleScenario.node[10].veinsmobility 	stopTime 	67.75
scalar IntersectionExampleScenario.node[10].veinsmobility 	minSpeed 	3.6566035747528
scalar IntersectionExampleScenario.node[10].veinsmobility 	maxSpeed 	15.471047401428
scalar IntersectionExampleScenario.node[10].veinsmobility 	totalDistance 	568.64856556154
scalar IntersectionExampleScenario.node[10].veinsmobility 	totalCO2Emission 	144.5476612801
scalar IntersectionExampleScenario.node[13].appl 	VehicleRemoved 	0
scalar IntersectionExampleScenario.node[13].appl 	ArrivedAtDest 	1
scalar IntersectionExampleScenario.node[13].appl 	IntersectionEnterTime 	29.5
scalar IntersectionExampleScenario.node[13].appl 	IntersectionExitTime 	55.003426074283
scalar IntersectionExampleScenario.node[13].appl 	NumberOfCollisions 	0
scalar IntersectionExampleScenario.node[13].nic.phy80211p 	busyTime 	0
scalar IntersectionExampleScenario.node[13].nic.mac1609_4 	ReceivedUnicastPackets 	0
scalar IntersectionExampleScenario.node[13].nic.mac1609_4 	ReceivedBroadcasts 	0
scalar IntersectionExampleScenario.node[13].nic.mac1609_4 	SentPackets 	0
scalar IntersectionExampleScenario.node[13].nic.mac1609_4 	SNIRLostPackets 	0
scalar IntersectionExampleScenario.node[13].nic.mac1609_4 	RXTXLostPackets 	0
scalar IntersectionExampleScenario.node[13].nic.mac1609_4 	TotalLostPackets 	0
scalar IntersectionExampleScenario.node[13].nic.mac1609_4 	DroppedPacketsInMac 	0
scalar IntersectionExampleScenario.node[13].nic.mac1609_4 	TooLittleTime 	0
scalar IntersectionExampleScenario.node[13].nic.mac1609_4 	TimesIntoBackoff 	0
scalar IntersectionExampleScenario.node[13].nic.mac1609_4 	SlotsBackoff 	0
scalar IntersectionExampleScenario.node[13].nic.mac1609_4 	NumInternalContention 	0
scalar IntersectionExampleScenario.node[13].nic.mac1609_4 	totalBusyTime 	0
scalar IntersectionExampleScenario.node[13].veinsmobility 	startTime 	29.5
scalar IntersectionExampleScenario.node[13].veinsmobility 	totalTime 	41.25
scalar IntersectionExampleScenario.node[13].veinsmobility 	stopTime 	71
scalar IntersectionExampleScenario.node[13].veinsmobility 	minSpeed 	1.7784745693207
scalar IntersectionExampleScenario.node[13].veinsmobility 	maxSpeed 	16.27499961853
scalar IntersectionExampleScenario.node[13].veinsmobility 	totalDistance 	550.58879505458
scalar IntersectionExampleScenario.node[13].veinsmobility 	totalCO2Emission 	138.38486633881
scalar IntersectionExampleScenario.node[8].appl 	VehicleRemoved 	0
scalar IntersectionExampleScenario.node[8].appl 	ArrivedAtDest 	1
scalar IntersectionExampleScenario.node[8].appl 	IntersectionEnterTime 	16
scalar IntersectionExampleScenario.node[8].appl 	IntersectionExitTime 	55.312457161781
scalar IntersectionExampleScenario.node[8].appl 	NumberOfCollisions 	0
scalar IntersectionExampleScenario.node[8].nic.phy80211p 	busyTime 	0
scalar IntersectionExampleScenario.node[8].nic.mac1609_4 	ReceivedUnicastPackets 	0
scalar IntersectionExampleScenario.node[8].nic.mac1609_4 	ReceivedBroadcasts 	0
scalar IntersectionExampleScenario.node[8].nic.mac1609_4 	SentPackets 	0
scalar IntersectionExampleScenario.node[8].nic.mac1609_4 	SNIRLostPackets 	0
scalar IntersectionExampleScenario.node[8].nic.mac1609_4 	RXTXLostPackets 	0
scalar IntersectionExampleScenario.node[8].nic.mac1609_4 	TotalLostPackets 	0
scalar IntersectionExampleScenario.node[8].nic.mac1609_4 	DroppedPacketsInMac 	0
scalar IntersectionExampleScenario.node[8].nic.mac1609_4 	TooLittleTime 	0
scalar IntersectionExampleScenario.node[8].nic.mac1609_4 	TimesIntoBackoff 	0
scalar IntersectionExampleScenario.node[8].nic.mac1609_4 	SlotsBackoff 	0
scalar IntersectionExampleScenario.node[8].nic.mac1609_4 	NumInternalContention 	0
scalar IntersectionExampleScenario.node[8].nic.mac1609_4 	totalBusyTime 	0
scalar IntersectionExampleScenario.node[8].veinsmobility 	startTime 	16
scalar IntersectionExampleScenario.node[8].veinsmobility 	totalTime 	55.25
scalar IntersectionExampleScenario.node[8].veinsmobility 	stopTime 	71.5
scalar IntersectionExampleScenario.node[8].veinsmobility 	minSpeed 	0
scalar IntersectionExampleScenario.node[8].veinsmobility 	maxSpeed 	15.64999961853
scalar IntersectionExampleScenario.node[8].veinsmobility 	totalDistance 	553.61804199219
scalar IntersectionExampleScenario.node[8].veinsmobility 	totalCO2Emission 	148.05506828446
scalar IntersectionExampleScenario.node[11].appl 	VehicleRemoved 	0
scalar IntersectionExampleScenario.node[11].appl 	ArrivedAtDest 	1
scalar IntersectionExampleScenario.node[11].appl 	IntersectionEnterTime 	21.5
scalar IntersectionExampleScenario.node[11].appl 	IntersectionExitTime 	57.614068910858
scalar IntersectionExampleScenario.node[11].appl 	NumberOfCollisions 	0
scalar IntersectionExampleScenario.node[11].nic.phy80211p 	busyTime 	0
scalar IntersectionExampleScenario.node[11].nic.mac1609_4 	ReceivedUnicastPackets 	0
scalar IntersectionExampleScenario.node[11].nic.mac1609_4 	ReceivedBroadcasts 	0
scalar IntersectionExampleScenario.node[11].nic.mac1609_4 	SentPackets 	0
scalar IntersectionExampleScenario.node[11].nic.mac1609_4 	SNIRLostPackets 	0
scalar IntersectionExampleScenario.node[11].nic.mac1609_4 	RXTXLostPackets 	0
scalar IntersectionExampleScenario.node[11].nic.mac1609_4 	TotalLostPackets 	0
scalar IntersectionExampleScenario.node[11].nic.mac1609_4 	DroppedPacketsInMac 	0
scalar IntersectionExampleScenario.node[11].nic.mac1609_4 	TooLittleTime 	0
scalar IntersectionExampleScenario.node[11].nic.mac1609_4 	TimesIntoBackoff 	0
scalar IntersectionExampleScenario.node[11].nic.mac1609_4 	SlotsBackoff 	0
scalar IntersectionExampleScenario.node[11].nic.mac1609_4 	NumInternalContention 	0
scalar IntersectionExampleScenario.node[11].nic.mac1609_4 	totalBusyTime 	0
scalar IntersectionExampleScenario.node[11].veinsmobility 	startTime 	21.5
scalar IntersectionExampleScenario.node[11].veinsmobility 	totalTime 	52
scalar IntersectionExampleScenario.node[11].veinsmobility 	stopTime 	73.75
scalar IntersectionExampleScenario.node[11].veinsmobility 	minSpeed 	0
scalar IntersectionExampleScenario.node[11].veinsmobility 	maxSpeed 	15.64999961853
scalar IntersectionExampleScenario.node[11].veinsmobility 	totalDistance 	554.98999023438
scalar IntersectionExampleScenario.node[11].veinsmobility 	totalCO2Emission 	142.39702131082
scalar IntersectionExampleScenario.node[15].appl 	VehicleRemoved 	0
scalar IntersectionExampleScenario.node[15].appl 	ArrivedAtDest 	1
scalar IntersectionExampleScenario.node[15].appl 	IntersectionEnterTime 	32
scalar IntersectionExampleScenario.node[15].appl 	IntersectionExitTime 	57.323572002846
scalar IntersectionExampleScenario.node[15].appl 	NumberOfCollisions 	0
scalar IntersectionExampleScenario.node[15].nic.phy80211p 	busyTime 	0
scalar IntersectionExampleScenario.node[15].nic.mac1609_4 	ReceivedUnicastPackets 	0
scalar IntersectionExampleScenario.node[15].nic.mac1609_4 	ReceivedBroadcasts 	0
scalar IntersectionExampleScenario.node[15].nic.mac1609_4 	SentPackets 	0
scalar IntersectionExampleScenario.node[15].nic.mac1609_4 	SNIRLostPackets 	0
scalar IntersectionExampleScenario.node[15].nic.mac1609_4 	RXTXLostPackets 	0
scalar IntersectionExampleScenario.node[15].nic.mac1609_4 	TotalLostPackets 	0
scalar IntersectionExampleScenario.node[15].nic.mac1609_4 	DroppedPacketsInMac 	0
scalar IntersectionExampleScenario.node[15].nic.mac1609_4 	TooLittleTime 	0
scalar IntersectionExampleScenario.node[15].nic.mac1609_4 	TimesIntoBackoff 	0
scalar IntersectionExampleScenario.node[15].nic.mac1609_4 	SlotsBackoff 	0
scalar IntersectionExampleScenario.node[15].nic.mac1609_4 	NumInternalContention 	0
scalar IntersectionExampleScenario.node[15].nic.mac1609_4 	totalBusyTime 	0
scalar IntersectionExampleScenario.node[15].veinsmobility 	startTime 	32
scalar IntersectionExampleScenario.node[15].veinsmobility 	totalTime 	42.25
scalar IntersectionExampleScenario.node[15].veinsmobility 	stopTime 	74.5
scalar IntersectionExampleScenario.node[15].veinsmobility 	minSpeed 	5.6500000953674
scalar IntersectionExampleScenario.node[15].veinsmobility 	maxSpeed 	15.25
scalar IntersectionExampleScenario.node[15].veinsmobility 	totalDistance 	561.56926936837
scalar IntersectionExampleScenario.node[15].veinsmobility 	totalCO2Emission 	129.15961403322
scalar IntersectionExampleScenario.node[14].appl 	VehicleRemoved 	0
scalar IntersectionExampleScenario.node[14].appl 	ArrivedAtDest 	1
scalar IntersectionExampleScenario.node[14].appl 	IntersectionEnterTime 	31.25
scalar IntersectionExampleScenario.node[14].appl 	IntersectionExitTime 	59.279334323393
scalar IntersectionExampleScenario.node[14].appl 	NumberOfCollisions 	0
scalar IntersectionExampleScenario.node[14].nic.phy80211p 	busyTime 	0
scalar IntersectionExampleScenario.node[14].nic.mac1609_4 	ReceivedUnicastPackets 	0
scalar IntersectionExampleScenario.node[14].nic.mac1609_4 	ReceivedBroadcasts 	0
scalar IntersectionExampleScenario.node[14].nic.mac1609_4 	SentPackets 	0
scalar IntersectionExampleScenario.node[14].nic.mac1609_4 	SNIRLostPackets 	0
scalar IntersectionExampleScenario.node[14].nic.mac1609_4 	RXTXLostPackets 	0
scalar IntersectionExampleScenario.node[14].nic.mac1609_4 	TotalLostPackets 	0
scalar IntersectionExampleScenario.node[14].nic.mac1609_4 	DroppedPacketsInMac 	0
scalar IntersectionExampleScenario.node[14].nic.mac1609_4 	TooLittleTime 	0
scalar IntersectionExampleScenario.node[14].nic.mac1609_4 	TimesIntoBackoff 	0
scalar IntersectionExampleScenario.node[14].nic.mac1609_4 	SlotsBackoff 	0
scalar IntersectionExampleScenario.node[14].nic.mac1609_4 	NumInternalContention 	0
scalar IntersectionExampleScenario.node[14].nic.mac1609_4 	totalBusyTime 	0
scalar IntersectionExampleScenario.node[14].veinsmobility 	startTime 	31.25
scalar IntersectionExampleScenario.node[14].veinsmobility 	totalTime 	43.5
scalar IntersectionExampleScenario.node[14].veinsmobility 	stopTime 	75
scalar IntersectionExampleScenario.node[14].veinsmobility 	minSpeed 	4.8870992660522
scalar IntersectionExampleScenario.node[14].veinsmobility 	maxSpeed 	16.27499961853
scalar IntersectionExampleScenario.node[14].veinsmobility 	totalDistance 	552.66427612305
scalar IntersectionExampleScenario.node[14].veinsmobility 	totalCO2Emission 	135.57390453173
scalar IntersectionExampleScenario.node[16].appl 	VehicleRemoved 	0
scalar IntersectionExampleScenario.node[16].appl 	ArrivedAtDest 	1
scalar IntersectionExampleScenario.node[16].appl 	IntersectionEnterTime 	33.5
scalar IntersectionExampleScenario.node[16].appl 	IntersectionExitTime 	60.120497829223
scalar IntersectionExampleScenario.node[16].appl 	NumberOfCollisions 	0
scalar IntersectionExampleScenario.node[16].nic.phy80211p 	busyTime 	0
scalar IntersectionExampleScenario.node[16].nic.mac1609_4 	ReceivedUnicastPackets 	0
scalar IntersectionExampleScenario.node[16].nic.mac1609_4 	ReceivedBroadcasts 	0
scalar IntersectionExampleScenario.node[16].nic.mac1609_4 	SentPackets 	0
scalar IntersectionExampleScenario.node[16].nic.mac1609_4 	SNIRLostPackets 	0
scalar IntersectionExampleScenario.node[16].nic.mac1609_4 	RXTXLostPackets 	0
scalar IntersectionExampleScenario.node[16].nic.mac1609_4 	TotalLostPackets 	0
scalar IntersectionExampleScenario.node[16].nic.mac1609_4 	DroppedPacketsInMac 	0
scalar IntersectionExampleScenario.node[16].nic.mac1609_4 	TooLittleTime 	0
scalar IntersectionExampleScenario.node[16].nic.mac1609_4 	TimesIntoBackoff 	0
scalar IntersectionExampleScenario.node[16].nic.mac1609_4 	SlotsBackoff 	0
scalar IntersectionExampleScenario.node[16].nic.mac1609_4 	NumInternalContention 	0
scalar IntersectionExampleScenario.node[16].nic.mac1609_4 	totalBusyTime 	0
scalar IntersectionExampleScenario.node[16].veinsmobility 	startTime 	33.5
scalar IntersectionExampleScenario.node[16].veinsmobility 	totalTime 	43.25
scalar IntersectionExampleScenario.node[16].veinsmobility 	stopTime 	77
scalar IntersectionExampleScenario.node[16].veinsmobility 	minSpeed 	5.6500000953674
scalar IntersectionExampleScenario.node[16].veinsmobility 	maxSpeed 	15.517234802246
scalar IntersectionExampleScenario.node[16].veinsmobility 	totalDistance 	572.50467865363
scalar IntersectionExampleScenario.node[16].veinsmobility 	totalCO2Emission 	135.76648692658
scalar IntersectionExampleScenario.node[20].appl 	VehicleRemoved 	0
scalar IntersectionExampleScenario.node[20].appl 	ArrivedAtDest 	1
scalar IntersectionExampleScenario.node[20].appl 	IntersectionEnterTime 	36.5
scalar IntersectionExampleScenario.node[20].appl 	IntersectionExitTime 	62.117850505252
scalar IntersectionExampleScenario.node[20].appl 	NumberOfCollisions 	0
scalar IntersectionExampleScenario.node[20].nic.phy80211p 	busyTime 	0
scalar IntersectionExampleScenario.node[20].nic.mac1609_4 	ReceivedUnicastPackets 	0
scalar IntersectionExampleScenario.node[20].nic.mac1609_4 	ReceivedBroadcasts 	0
scalar IntersectionExampleScenario.node[20].nic.mac1609_4 	SentPackets 	0
scalar IntersectionExampleScenario.node[20].nic.mac1609_4 	SNIRLostPackets 	0
scalar IntersectionExampleScenario.node[20].nic.mac1609_4 	RXTXLostPackets 	0
scalar IntersectionExampleScenario.node[20].nic.mac1609_4 	TotalLostPackets 	0
scalar IntersectionExampleScenario.node[20].nic.mac1609_4 	DroppedPacketsInMac 	0
scalar IntersectionExampleScenario.node[20].nic.mac1609_4 	TooLittleTime 	0
scalar IntersectionExampleScenario.node[20].nic.mac1609_4 	TimesIntoBackoff 	0
scalar IntersectionExampleScenario.node[20].nic.mac1609_4 	SlotsBackoff 	0
scalar IntersectionExampleScenario.node[20].nic.mac1609_4 	NumInternalContention 	0
scalar IntersectionExampleScenario.node[20].nic.mac1609_4 	totalBusyTime 	0
scalar IntersectionExampleScenario.node[20].veinsmobility 	startTime 	36.5
scalar IntersectionExampleScenario.node[20].veinsmobility 	totalTime 	42.25
scalar IntersectionExampleScenario.node[20].veinsmobility 	stopTime 	79
scalar IntersectionExampleScenario.node[20].veinsmobility 	minSpeed 	5.6500000953674
scalar IntersectionExampleScenario.node[20].veinsmobility 	maxSpeed 	15.64999961853
scalar IntersectionExampleScenario.node[20].veinsmobility 	totalDistance 	572.11658965206
scalar IntersectionExampleScenario.node[20].veinsmobility 	totalCO2Emission 	127.22814876971
scalar IntersectionExampleScenario.node[12].appl 	VehicleRemoved 	0
scalar IntersectionExampleScenario.node[12].appl 	ArrivedAtDest 	1
scalar IntersectionExampleScenario.node[12].appl 	IntersectionEnterTime 	26
scalar IntersectionExampleScenario.node[12].appl 	IntersectionExitTime 	67.594668120146
scalar IntersectionExampleScenario.node[12].appl 	NumberOfCollisions 	0
scalar IntersectionExampleScenario.node[12].nic.phy80211p 	busyTime 	0
scalar IntersectionExampleScenario.node[12].nic.mac1609_4 	ReceivedUnicastPackets 	0
scalar IntersectionExampleScenario.node[12].nic.mac1609_4 	ReceivedBroadcasts 	0
scalar IntersectionExampleScenario.node[12].nic.mac1609_4 	SentPackets 	0
scalar IntersectionExampleScenario.node[12].nic.mac1609_4 	SNIRLostPackets 	0
scalar IntersectionExampleScenario.node[12].nic.mac1609_4 	RXTXLostPackets 	0
scalar IntersectionExampleScenario.node[12].nic.mac1609_4 	TotalLostPackets 	0
scalar IntersectionExampleScenario.node[12].nic.mac1609_4 	DroppedPacketsInMac 	0
scalar IntersectionExampleScenario.node[12].nic.mac1609_4 	TooLittleTime 	0
scalar IntersectionExampleScenario.node[12].nic.mac1609_4 	TimesIntoBackoff 	0
scalar IntersectionExampleScenario.node[12].nic.mac1609_4 	SlotsBackoff 	0
scalar IntersectionExampleScenario.node[12].nic.mac1609_4 	NumInternalContention 	0
scalar IntersectionExampleScenario.node[12].nic.mac1609_4 	totalBusyTime 	0
scalar IntersectionExampleScenario.node[12].veinsmobility 	startTime 	26
scalar IntersectionExampleScenario.node[12].veinsmobility 	totalTime 	59.25
scalar IntersectionExampleScenario.node[12].veinsmobility 	stopTime 	85.5
scalar IntersectionExampleScenario.node[12].veinsmobility 	minSpeed 	0
scalar IntersectionExampleScenario.node[12].veinsmobility 	maxSpeed 	14.625
scalar IntersectionExampleScenario.node[12].veinsmobility 	totalDistance 	546.36447812468
scalar IntersectionExampleScenario.node[12].veinsmobility 	totalCO2Emission 	143.87517374741
scalar IntersectionExampleScenario.node[19].appl 	VehicleRemoved 	0
scalar IntersectionExampleScenario.node[19].appl 	ArrivedAtDest 	1
scalar IntersectionExampleScenario.node[19].appl 	IntersectionEnterTime 	36.25
scalar IntersectionExampleScenario.node[19].appl 	IntersectionExitTime 	70.00226907141
scalar IntersectionExampleScenario.node[19].appl 	NumberOfCollisions 	0
scalar IntersectionExampleScenario.node[19].nic.phy80211p 	busyTime 	0
scalar IntersectionExampleScenario.node[19].nic.mac1609_4 	ReceivedUnicastPackets 	0
scalar IntersectionExampleScenario.node[19].nic.mac1609_4 	ReceivedBroadcasts 	0
scalar IntersectionExampleScenario.node[19].nic.mac1609_4 	SentPackets 	0
scalar IntersectionExampleScenario.node[19].nic.mac1609_4 	SNIRLostPackets 	0
scalar IntersectionExampleScenario.node[19].nic.mac1609_4 	RXTXLostPackets 	0
scalar IntersectionExampleScenario.node[19].nic.mac1609_4 	TotalLostPackets 	0
scalar IntersectionExampleScenario.node[19].nic.mac1609_4 	DroppedPacketsInMac 	0
scalar IntersectionExampleScenario.node[19].nic.mac1609_4 	TooLittleTime 	0
scalar IntersectionExampleScenario.node[19].nic.mac1609_4 	TimesIntoBackoff 	0
scalar IntersectionExampleScenario.node[19].nic.mac1609_4 	SlotsBackoff 	0
scalar IntersectionExampleScenario.node[19].nic.mac1609_4 	NumInternalContention 	0
scalar IntersectionExampleScenario.node[19].nic.mac1609_4 	totalBusyTime 	0
scalar IntersectionExampleScenario.node[19].veinsmobility 	startTime 	36.25
scalar IntersectionExampleScenario.node[19].veinsmobility 	totalTime 	50.5
scalar IntersectionExampleScenario.node[19].veinsmobility 	stopTime 	87
scalar IntersectionExampleScenario.node[19].veinsmobility 	minSpeed 	1.0694476366043
scalar IntersectionExampleScenario.node[19].veinsmobility 	maxSpeed 	15.64999961853
scalar IntersectionExampleScenario.node[19].veinsmobility 	totalDistance 	546.49590421901
scalar IntersectionExampleScenario.node[19].veinsmobility 	totalCO2Emission 	139.64673631631
scalar IntersectionExampleScenario.node[21].appl 	VehicleRemoved 	0
scalar IntersectionExampleScenario.node[21].appl 	ArrivedAtDest 	1
scalar IntersectionExampleScenario.node[21].appl 	IntersectionEnterTime 	41.25
scalar IntersectionExampleScenario.node[21].appl 	IntersectionExitTime 	72.009841766674
scalar IntersectionExampleScenario.node[21].appl 	NumberOfCollisions 	0
scalar IntersectionExampleScenario.node[21].nic.phy80211p 	busyTime 	0
scalar IntersectionExampleScenario.node[21].nic.mac1609_4 	ReceivedUnicastPackets 	0
scalar IntersectionExampleScenario.node[21].nic.mac1609_4 	ReceivedBroadcasts 	0
scalar IntersectionExampleScenario.node[21].nic.mac1609_4 	SentPackets 	0
scalar IntersectionExampleScenario.node[21].nic.mac1609_4 	SNIRLostPackets 	0
scalar IntersectionExampleScenario.node[21].nic.mac1609_4 	RXTXLostPackets 	0
scalar IntersectionExampleScenario.node[21].nic.mac1609_4 	TotalLostPackets 	0
scalar IntersectionExampleScenario.node[21].nic.mac1609_4 	DroppedPacketsInMac 	0
scalar IntersectionExampleScenario.node[21].nic.mac1609_4 	TooLittleTime 	0
scalar IntersectionExampleScenario.node[21].nic.mac1609_4 	TimesIntoBackoff 	0
scalar IntersectionExampleScenario.node[21].nic.mac1609_4 	SlotsBackoff 	0
scalar IntersectionExampleScenario.node[21].nic.mac1609_4 	NumInternalContention 	0
scalar IntersectionExampleScenario.node[21].nic.mac1609_4 	totalBusyTime 	0
scalar IntersectionExampleScenario.node[21].veinsmobility 	startTime 	41.25
scalar IntersectionExampleScenario.node[21].veinsmobility 	totalTime 	47
scalar IntersectionExampleScenario.node[21].veinsmobility 	stopTime 	88.5
scalar IntersectionExampleScenario.node[21].veinsmobility 	minSpeed 	3.8373255729675
scalar IntersectionExampleScenario.node[21].veinsmobility 	maxSpeed 	15.64999961853
scalar IntersectionExampleScenario.node[21].veinsmobility 	totalDistance 	550.38716028588
scalar IntersectionExampleScenario.node[21].veinsmobility 	totalCO2Emission 	137.50501077396
scalar IntersectionExampleScenario.node[22].appl 	VehicleRemoved 	0
scalar IntersectionExampleScenario.node[22].appl 	ArrivedAtDest 	1
scalar IntersectionExampleScenario.node[22].appl 	IntersectionEnterTime 	43.75
scalar IntersectionExampleScenario.node[22].appl 	IntersectionExitTime 	74.076380127604
scalar IntersectionExampleScenario.node[22].appl 	NumberOfCollisions 	0
scalar IntersectionExampleScenario.node[22].nic.phy80211p 	busyTime 	0
scalar IntersectionExampleScenario.node[22].nic.mac1609_4 	ReceivedUnicastPackets 	0
scalar IntersectionExampleScenario.node[22].nic.mac1609_4 	ReceivedBroadcasts 	0
scalar IntersectionExampleScenario.node[22].nic.mac1609_4 	SentPackets 	0
scalar IntersectionExampleScenario.node[22].nic.mac1609_4 	SNIRLostPackets 	0
scalar IntersectionExampleScenario.node[22].nic.mac1609_4 	RXTXLostPackets 	0
scalar IntersectionExampleScenario.node[22].nic.mac1609_4 	TotalLostPackets 	0
scalar IntersectionExampleScenario.node[22].nic.mac1609_4 	DroppedPacketsInMac 	0
scalar IntersectionExampleScenario.node[22].nic.mac1609_4 	TooLittleTime 	0
scalar IntersectionExampleScenario.node[22].nic.mac1609_4 	TimesIntoBackoff 	0
scalar IntersectionExampleScenario.node[22].nic.mac1609_4 	SlotsBackoff 	0
scalar IntersectionExampleScenario.node[22].nic.mac1609_4 	NumInternalContention 	0
scalar IntersectionExampleScenario.node[22].nic.mac1609_4 	totalBusyTime 	0
scalar IntersectionExampleScenario.node[22].veinsmobility 	startTime 	43.75
scalar IntersectionExampleScenario.node[22].veinsmobility 	totalTime 	46.25
scalar IntersectionExampleScenario.node[22].veinsmobility 	stopTime 	90.25
scalar IntersectionExampleScenario.node[22].veinsmobility 	minSpeed 	4.0579876899719
scalar IntersectionExampleScenario.node[22].veinsmobility 	maxSpeed 	16.016914367676
scalar IntersectionExampleScenario.node[22].veinsmobility 	totalDistance 	558.80149777755
scalar IntersectionExampleScenario.node[22].veinsmobility 	totalCO2Emission 	144.91916750069
scalar IntersectionExampleScenario.node[24].appl 	VehicleRemoved 	0
scalar IntersectionExampleScenario.node[24].appl 	ArrivedAtDest 	1
scalar IntersectionExampleScenario.node[24].appl 	IntersectionEnterTime 	47
scalar IntersectionExampleScenario.node[24].appl 	IntersectionExitTime 	76.30749778173
scalar IntersectionExampleScenario.node[24].appl 	NumberOfCollisions 	0
scalar IntersectionExampleScenario.node[24].nic.phy80211p 	busyTime 	0
scalar IntersectionExampleScenario.node[24].nic.mac1609_4 	ReceivedUnicastPackets 	0
scalar IntersectionExampleScenario.node[24].nic.mac1609_4 	ReceivedBroadcasts 	0
scalar IntersectionExampleScenario.node[24].nic.mac1609_4 	SentPackets 	0
scalar IntersectionExampleScenario.node[24].nic.mac1609_4 	SNIRLostPackets 	0
scalar IntersectionExampleScenario.node[24].nic.mac1609_4 	RXTXLostPackets 	0
scalar IntersectionExampleScenario.node[24].nic.mac1609_4 	TotalLostPackets 	0
scalar IntersectionExampleScenario.node[24].nic.mac1609_4 	DroppedPacketsInMac 	0
scalar IntersectionExampleScenario.node[24].nic.mac1609_4 	TooLittleTime 	0
scalar IntersectionExampleScenario.node[24].nic.mac1609_4 	TimesIntoBackoff 	0
scalar IntersectionExampleScenario.node[24].nic.mac1609_4 	SlotsBackoff 	0
scalar IntersectionExampleScenario.node[24].nic.mac1609_4 	NumInternalContention 	0
scalar IntersectionExampleScenario.node[24].nic.mac1609_4 	totalBusyTime 	0
scalar IntersectionExampleScenario.node[24].veinsmobility 	startTime 	47
scalar IntersectionExampleScenario.node[24].veinsmobility 	totalTime 	45.5
scalar IntersectionExampleScenario.node[24].veinsmobility 	stopTime 	92.75
scalar IntersectionExampleScenario.node[24].veinsmobility 	minSpeed 	5.6500000953674
scalar IntersectionExampleScenario.node[24].veinsmobility 	maxSpeed 	16.27499961853
scalar IntersectionExampleScenario.node[24].veinsmobility 	totalDistance 	565.33359966401
scalar IntersectionExampleScenario.node[24].veinsmobility 	totalCO2Emission 	136.64150764111
scalar IntersectionExampleScenario.node[17].appl 	VehicleRemoved 	0
scalar IntersectionExampleScenario.node[17].appl 	ArrivedAtDest 	1
scalar IntersectionExampleScenario.node[17].appl 	IntersectionEnterTime 	33.5
scalar IntersectionExampleScenario.node[17].appl 	IntersectionExitTime 	78.365134927968
scalar IntersectionExampleScenario.node[17].appl 	NumberOfCollisions 	0
scalar IntersectionExampleScenario.node[17].nic.phy80211p 	busyTime 	0
scalar IntersectionExampleScenario.node[17].nic.mac1609_4 	ReceivedUnicastPackets 	0
scalar IntersectionExampleScenario.node[17].nic.mac1609_4 	ReceivedBroadcasts 	0
scalar IntersectionExampleScenario.node[17].nic.mac1609_4 	SentPackets 	0
scalar IntersectionExampleScenario.node[17].nic.mac1609_4 	SNIRLostPackets 	0
scalar IntersectionExampleScenario.node[17].nic.mac1609_4 	RXTXLostPackets 	0
scalar IntersectionExampleScenario.node[17].nic.mac1609_4 	TotalLostPackets 	0
scalar IntersectionExampleScenario.node[17].nic.mac1609_4 	DroppedPacketsInMac 	0
scalar IntersectionExampleScenario.node[17].nic.mac1609_4 	TooLittleTime 	0
scalar IntersectionExampleScenario.node[17].nic.mac1609_4 	TimesIntoBackoff 	0
scalar IntersectionExampleScenario.node[17].nic.mac1609_4 	SlotsBackoff 	0
scalar IntersectionExampleScenario.node[17].nic.mac1609_4 	NumInternalContention 	0
scalar IntersectionExampleScenario.node[17].nic.mac1609_4 	totalBusyTime 	0
scalar IntersectionExampleScenario.node[17].veinsmobility 	startTime 	33.5
scalar IntersectionExampleScenario.node[17].veinsmobility 	totalTime 	59.75
scalar IntersectionExampleScenario.node[17].veinsmobility 	stopTime 	93.5
scalar IntersectionExampleScenario.node[17].veinsmobility 	minSpeed 	0
scalar IntersectionExampleScenario.node[17].veinsmobility 	maxSpeed 	16.89999961853
scalar IntersectionExampleScenario.node[17].veinsmobility 	totalDistance 	551.87522125244
scalar IntersectionExampleScenario.node[17].veinsmobility 	totalCO2Emission 	162.95112874676
scalar IntersectionExampleScenario.node[18].appl 	VehicleRemoved 	0
scalar IntersectionExampleScenario.node[18].appl 	ArrivedAtDest 	1
scalar IntersectionExampleScenario.node[18].appl 	IntersectionEnterTime 	36.25
scalar IntersectionExampleScenario.node[18].appl 	IntersectionExitTime 	79.02760128316
scalar IntersectionExampleScenario.node[18].appl 	NumberOfCollisions 	0
scalar IntersectionExampleScenario.node[18].nic.phy80211p 	busyTime 	0
scalar IntersectionExampleScenario.node[18].nic.mac1609_4 	ReceivedUnicastPackets 	0
scalar IntersectionExampleScenario.node[18].nic.mac1609_4 	ReceivedBroadcasts 	0
scalar IntersectionExampleScenario.node[18].nic.mac1609_4 	SentPackets 	0
scalar IntersectionExampleScenario.node[18].nic.mac1609_4 	SNIRLostPackets 	0
scalar IntersectionExampleScenario.node[18].nic.mac1609_4 	RXTXLostPackets 	0
scalar IntersectionExampleScenario.node[18].nic.mac1609_4 	TotalLostPackets 	0
scalar IntersectionExampleScenario.node[18].nic.mac1609_4 	DroppedPacketsInMac 	0
scalar IntersectionExampleScenario.node[18].nic.mac1609_4 	TooLittleTime 	0
scalar IntersectionExampleScenario.node[18].nic.mac1609_4 	TimesIntoBackoff 	0
scalar IntersectionExampleScenario.node[18].nic.mac1609_4 	SlotsBackoff 	0
scalar IntersectionExampleScenario.node[18].nic.mac1609_4 	NumInternalContention 	0
scalar IntersectionExampleScenario.node[18].nic.mac1609_4 	totalBusyTime 	0
scalar IntersectionExampleScenario.node[18].veinsmobility 	startTime 	36.25
scalar IntersectionExampleScenario.node[18].veinsmobility 	totalTime 	59.75
scalar IntersectionExampleScenario.node[18].veinsmobility 	stopTime 	96.25
scalar IntersectionExampleScenario.node[18].veinsmobility 	minSpeed 	0
scalar IntersectionExampleScenario.node[18].veinsmobility 	maxSpeed 	15.64999961853
scalar IntersectionExampleScenario.node[18].veinsmobility 	totalDistance 	560.41960086135
scalar IntersectionExampleScenario.node[18].veinsmobility 	totalCO2Emission 	150.76053899984
scalar IntersectionExampleScenario.node[25].appl 	VehicleRemoved 	0
scalar IntersectionExampleScenario.node[25].appl 	ArrivedAtDest 	1
scalar IntersectionExampleScenario.node[25].appl 	IntersectionEnterTime 	52
scalar IntersectionExampleScenario.node[25].appl 	IntersectionExitTime 	87.299338968587
scalar IntersectionExampleScenario.node[25].appl 	NumberOfCollisions 	0
scalar IntersectionExampleScenario.node[25].nic.phy80211p 	busyTime 	0
scalar IntersectionExampleScenario.node[25].nic.mac1609_4 	ReceivedUnicastPackets 	0
scalar IntersectionExampleScenario.node[25].nic.mac1609_4 	ReceivedBroadcasts 	0
scalar IntersectionExampleScenario.node[25].nic.mac1609_4 	SentPackets 	0
scalar IntersectionExampleScenario.node[25].nic.mac1609_4 	SNIRLostPackets 	0
scalar IntersectionExampleScenario.node[25].nic.mac1609_4 	RXTXLostPackets 	0
scalar IntersectionExampleScenario.node[25].nic.mac1609_4 	TotalLostPackets 	0
scalar IntersectionExampleScenario.node[25].nic.mac1609_4 	DroppedPacketsInMac 	0
scalar IntersectionExampleScenario.node[25].nic.mac1609_4 	TooLittleTime 	0
scalar IntersectionExampleScenario.node[25].nic.mac1609_4 	TimesIntoBackoff 	0
scalar IntersectionExampleScenario.node[25].nic.mac1609_4 	SlotsBackoff 	0
scalar IntersectionExampleScenario.node[25].nic.mac1609_4 	NumInternalContention 	0
scalar IntersectionExampleScenario.node[25].nic.mac1609_4 	totalBusyTime 	0
scalar IntersectionExampleScenario.node[25].veinsmobility 	startTime 	52
scalar IntersectionExampleScenario.node[25].veinsmobility 	totalTime 	51.5
scalar IntersectionExampleScenario.node[25].veinsmobility 	stopTime 	103.75
scalar IntersectionExampleScenario.node[25].veinsmobility 	minSpeed 	0
scalar IntersectionExampleScenario.node[25].veinsmobility 	maxSpeed 	15.375
scalar IntersectionExampleScenario.node[25].veinsmobility 	totalDistance 	553.37906646729
scalar IntersectionExampleScenario.node[25].veinsmobility 	totalCO2Emission 	142.48044517573
scalar IntersectionExampleScenario.node[26].appl 	VehicleRemoved 	0
scalar IntersectionExampleScenario.node[26].appl 	ArrivedAtDest 	1
scalar IntersectionExampleScenario.node[26].appl 	IntersectionEnterTime 	52.5
scalar IntersectionExampleScenario.node[26].appl 	IntersectionExitTime 	88.062460480258
scalar IntersectionExampleScenario.node[26].appl 	NumberOfCollisions 	0
scalar IntersectionExampleScenario.node[26].nic.phy80211p 	busyTime 	0
scalar IntersectionExampleScenario.node[26].nic.mac1609_4 	ReceivedUnicastPackets 	0
scalar IntersectionExampleScenario.node[26].nic.mac1609_4 	ReceivedBroadcasts 	0
scalar IntersectionExampleScenario.node[26].nic.mac1609_4 	SentPackets 	0
scalar IntersectionExampleScenario.node[26].nic.mac1609_4 	SNIRLostPackets 	0
scalar IntersectionExampleScenario.node[26].nic.mac1609_4 	RXTXLostPackets 	0
scalar IntersectionExampleScenario.node[26].nic.mac1609_4 	TotalLostPackets 	0
scalar IntersectionExampleScenario.node[26].nic.mac1609_4 	DroppedPacketsInMac 	0
scalar IntersectionExampleScenario.node[26].nic.mac1609_4 	TooLittleTime 	0
scalar IntersectionExampleScenario.node[26].nic.mac1609_4 	TimesIntoBackoff 	0
scalar IntersectionExampleScenario.node[26].nic.mac1609_4 	SlotsBackoff 	0
scalar IntersectionExampleScenario.node[26].nic.mac1609_4 	NumInternalContention 	0
scalar IntersectionExampleScenario.node[26].nic.mac1609_4 	totalBusyTime 	0
scalar IntersectionExampleScenario.node[26].veinsmobility 	startTime 	52.5
scalar IntersectionExampleScenario.node[26].veinsmobility 	totalTime 	52.25
scalar IntersectionExampleScenario.node[26].veinsmobility 	stopTime 	105
scalar IntersectionExampleScenario.node[26].veinsmobility 	minSpeed 	0
scalar IntersectionExampleScenario.node[26].veinsmobility 	maxSpeed 	15.499891281128
scalar IntersectionExampleScenario.node[26].veinsmobility 	totalDistance 	567.88502966512
scalar IntersectionExampleScenario.node[26].veinsmobility 	totalCO2Emission 	145.54763319197
scalar IntersectionExampleScenario.node[23].appl 	VehicleRemoved 	0
scalar IntersectionExampleScenario.node[23].appl 	ArrivedAtDest 	1
scalar IntersectionExampleScenario.node[23].appl 	IntersectionEnterTime 	44.75
scalar IntersectionExampleScenario.node[23].appl 	IntersectionExitTime 	87.273450774344
scalar IntersectionExampleScenario.node[23].appl 	NumberOfCollisions 	0
scalar IntersectionExampleScenario.node[23].nic.phy80211p 	busyTime 	0
scalar IntersectionExampleScenario.node[23].nic.mac1609_4 	ReceivedUnicastPackets 	0
scalar IntersectionExampleScenario.node[23].nic.mac1609_4 	ReceivedBroadcasts 	0
scalar IntersectionExampleScenario.node[23].nic.mac1609_4 	SentPackets 	0
scalar IntersectionExampleScenario.node[23].nic.mac1609_4 	SNIRLostPackets 	0
scalar IntersectionExampleScenario.node[23].nic.mac1609_4 	RXTXLostPackets 	0
scalar IntersectionExampleScenario.node[23].nic.mac1609_4 	TotalLostPackets 	0
scalar IntersectionExampleScenario.node[23].nic.mac1609_4 	DroppedPacketsInMac 	0
scalar IntersectionExampleScenario.node[23].nic.mac1609_4 	TooLittleTime 	0
scalar IntersectionExampleScenario.node[23].nic.mac1609_4 	TimesIntoBackoff 	0
scalar IntersectionExampleScenario.node[23].nic.mac1609_4 	SlotsBackoff 	0
scalar IntersectionExampleScenario.node[23].nic.mac1609_4 	NumInternalContention 	0
scalar IntersectionExampleScenario.node[23].nic.mac1609_4 	totalBusyTime 	0
scalar IntersectionExampleScenario.node[23].veinsmobility 	startTime 	44.75
scalar IntersectionExampleScenario.node[23].veinsmobility 	totalTime 	60
scalar IntersectionExampleScenario.node[23].veinsmobility 	stopTime 	105
scalar IntersectionExampleScenario.node[23].veinsmobility 	minSpeed 	0
scalar IntersectionExampleScenario.node[23].veinsmobility 	maxSpeed 	14.39999961853
scalar IntersectionExampleScenario.node[23].veinsmobility 	totalDistance 	554.82559204102
scalar IntersectionExampleScenario.node[23].veinsmobility 	totalCO2Emission 	142.63885176298
scalar IntersectionExampleScenario.node[29].appl 	VehicleRemoved 	0
scalar IntersectionExampleScenario.node[29].appl 	ArrivedAtDest 	1
scalar IntersectionExampleScenario.node[29].appl 	IntersectionEnterTime 	57.5
scalar IntersectionExampleScenario.node[29].appl 	IntersectionExitTime 	88.583871996088
scalar IntersectionExampleScenario.node[29].appl 	NumberOfCollisions 	0
scalar IntersectionExampleScenario.node[29].nic.phy80211p 	busyTime 	0
scalar IntersectionExampleScenario.node[29].nic.mac1609_4 	ReceivedUnicastPackets 	0
scalar IntersectionExampleScenario.node[29].nic.mac1609_4 	ReceivedBroadcasts 	0
scalar IntersectionExampleScenario.node[29].nic.mac1609_4 	SentPackets 	0
scalar IntersectionExampleScenario.node[29].nic.mac1609_4 	SNIRLostPackets 	0
scalar IntersectionExampleScenario.node[29].nic.mac1609_4 	RXTXLostPackets 	0
scalar IntersectionExampleScenario.node[29].nic.mac1609_4 	TotalLostPackets 	0
scalar IntersectionExampleScenario.node[29].nic.mac1609_4 	DroppedPacketsInMac 	0
scalar IntersectionExampleScenario.node[29].nic.mac1609_4 	TooLittleTime 	0
scalar IntersectionExampleScenario.node[29].nic.mac1609_4 	TimesIntoBackoff 	0
scalar IntersectionExampleScenario.node[29].nic.mac1609_4 	SlotsBackoff 	0
scalar IntersectionExampleScenario.node[29].nic.mac1609_4 	NumInternalContention 	0
scalar IntersectionExampleScenario.node[29].nic.mac1609_4 	totalBusyTime 	0
scalar IntersectionExampleScenario.node[29].veinsmobility 	startTime 	57.5
scalar IntersectionExampleScenario.node[29].veinsmobility 	totalTime 	47.25
scalar IntersectionExampleScenario.node[29].veinsmobility 	stopTime 	105
scalar IntersectionExampleScenario.node[29].veinsmobility 	minSpeed 	1.9299751520157
scalar IntersectionExampleScenario.node[29].veinsmobility 	maxSpeed 	16.27499961853
scalar IntersectionExampleScenario.node[29].veinsmobility 	totalDistance 	546.43705640555
scalar IntersectionExampleScenario.node[29].veinsmobility 	totalCO2Emission 	141.2569604488
scalar IntersectionExampleScenario.node[28].appl 	VehicleRemoved 	0
scalar IntersectionExampleScenario.node[28].appl 	ArrivedAtDest 	1
scalar IntersectionExampleScenario.node[28].appl 	IntersectionEnterTime 	56.75
scalar IntersectionExampleScenario.node[28].appl 	IntersectionExitTime 	90.618731536699
scalar IntersectionExampleScenario.node[28].appl 	NumberOfCollisions 	0
scalar IntersectionExampleScenario.node[28].nic.phy80211p 	busyTime 	0
scalar IntersectionExampleScenario.node[28].nic.mac1609_4 	ReceivedUnicastPackets 	0
scalar IntersectionExampleScenario.node[28].nic.mac1609_4 	ReceivedBroadcasts 	0
scalar IntersectionExampleScenario.node[28].nic.mac1609_4 	SentPackets 	0
scalar IntersectionExampleScenario.node[28].nic.mac1609_4 	SNIRLostPackets 	0
scalar IntersectionExampleScenario.node[28].nic.mac1609_4 	RXTXLostPackets 	0
scalar IntersectionExampleScenario.node[28].nic.mac1609_4 	TotalLostPackets 	0
scalar IntersectionExampleScenario.node[28].nic.mac1609_4 	DroppedPacketsInMac 	0
scalar IntersectionExampleScenario.node[28].nic.mac1609_4 	TooLittleTime 	0
scalar IntersectionExampleScenario.node[28].nic.mac1609_4 	TimesIntoBackoff 	0
scalar IntersectionExampleScenario.node[28].nic.mac1609_4 	SlotsBackoff 	0
scalar IntersectionExampleScenario.node[28].nic.mac1609_4 	NumInternalContention 	0
scalar IntersectionExampleScenario.node[28].nic.mac1609_4 	totalBusyTime 	0
scalar IntersectionExampleScenario.node[28].veinsmobility 	startTime 	56.75
scalar IntersectionExampleScenario.node[28].veinsmobility 	totalTime 	49.25
scalar IntersectionExampleScenario.node[28].veinsmobility 	stopTime 	106.25
scalar IntersectionExampleScenario.node[28].veinsmobility 	minSpeed 	0
scalar IntersectionExampleScenario.node[28].veinsmobility 	maxSpeed 	15.679890632629
scalar IntersectionExampleScenario.node[28].veinsmobility 	totalDistance 	569.74471282959
scalar IntersectionExampleScenario.node[28].veinsmobility 	totalCO2Emission 	144.36124964437
scalar IntersectionExampleScenario.node[33].appl 	VehicleRemoved 	0
scalar IntersectionExampleScenario.node[33].appl 	ArrivedAtDest 	1
scalar IntersectionExampleScenario.node[33].appl 	IntersectionEnterTime 	68
scalar IntersectionExampleScenario.node[33].appl 	IntersectionExitTime 	93.109543409344
scalar IntersectionExampleScenario.node[33].appl 	NumberOfCollisions 	0
scalar IntersectionExampleScenario.node[33].nic.phy80211p 	busyTime 	0
scalar IntersectionExampleScenario.node[33].nic.mac1609_4 	ReceivedUnicastPackets 	0
scalar IntersectionExampleScenario.node[33].nic.mac1609_4 	ReceivedBroadcasts 	0
scalar IntersectionExampleScenario.node[33].nic.mac1609_4 	SentPackets 	0
scalar IntersectionExampleScenario.node[33].nic.mac1609_4 	SNIRLostPackets 	0
scalar IntersectionExampleScenario.node[33].nic.mac1609_4 	RXTXLostPackets 	0
scalar IntersectionExampleScenario.node[33].nic.mac1609_4 	TotalLostPackets 	0
scalar IntersectionExampleScenario.node[33].nic.mac1609_4 	DroppedPacketsInMac 	0
scalar IntersectionExampleScenario.node[33].nic.mac1609_4 	TooLittleTime 	0
scalar IntersectionExampleScenario.node[33].nic.mac1609_4 	TimesIntoBackoff 	0
scalar IntersectionExampleScenario.node[33].nic.mac1609_4 	SlotsBackoff 	0
scalar IntersectionExampleScenario.node[33].nic.mac1609_4 	NumInternalContention 	0
scalar IntersectionExampleScenario.node[33].nic.mac1609_4 	totalBusyTime 	0
scalar IntersectionExampleScenario.node[33].veinsmobility 	startTime 	68
scalar IntersectionExampleScenario.node[33].veinsmobility 	totalTime 	41.25
scalar IntersectionExampleScenario.node[33].veinsmobility 	stopTime 	109.5
scalar IntersectionExampleScenario.node[33].veinsmobility 	minSpeed 	5.6500000953674
scalar IntersectionExampleScenario.node[33].veinsmobility 	maxSpeed 	15.64999961853
scalar IntersectionExampleScenario.node[33].veinsmobility 	totalDistance 	550.10798797931
scalar IntersectionExampleScenario.node[33].veinsmobility 	totalCO2Emission 	137.74820858943
scalar IntersectionExampleScenario.node[34].appl 	VehicleRemoved 	0
scalar IntersectionExampleScenario.node[34].appl 	ArrivedAtDest 	1
scalar IntersectionExampleScenario.node[34].appl 	IntersectionEnterTime 	68.25
scalar IntersectionExampleScenario.node[34].appl 	IntersectionExitTime 	94.303350160073
scalar IntersectionExampleScenario.node[34].appl 	NumberOfCollisions 	0
scalar IntersectionExampleScenario.node[34].nic.phy80211p 	busyTime 	0
scalar IntersectionExampleScenario.node[34].nic.mac1609_4 	ReceivedUnicastPackets 	0
scalar IntersectionExampleScenario.node[34].nic.mac1609_4 	ReceivedBroadcasts 	0
scalar IntersectionExampleScenario.node[34].nic.mac1609_4 	SentPackets 	0
scalar IntersectionExampleScenario.node[34].nic.mac1609_4 	SNIRLostPackets 	0
scalar IntersectionExampleScenario.node[34].nic.mac1609_4 	RXTXLostPackets 	0
scalar IntersectionExampleScenario.node[34].nic.mac1609_4 	TotalLostPackets 	0
scalar IntersectionExampleScenario.node[34].nic.mac1609_4 	DroppedPacketsInMac 	0
scalar IntersectionExampleScenario.node[34].nic.mac1609_4 	TooLittleTime 	0
scalar IntersectionExampleScenario.node[34].nic.mac1609_4 	TimesIntoBackoff 	0
scalar IntersectionExampleScenario.node[34].nic.mac1609_4 	SlotsBackoff 	0
scalar IntersectionExampleScenario.node[34].nic.mac1609_4 	NumInternalContention 	0
scalar IntersectionExampleScenario.node[34].nic.mac1609_4 	totalBusyTime 	0
scalar IntersectionExampleScenario.node[34].veinsmobility 	startTime 	68.25
scalar IntersectionExampleScenario.node[34].veinsmobility 	totalTime 	41.5
scalar IntersectionExampleScenario.node[34].veinsmobility 	stopTime 	110
scalar IntersectionExampleScenario.node[34].veinsmobility 	minSpeed 	5.6500000953674
scalar IntersectionExampleScenario.node[34].veinsmobility 	maxSpeed 	16.125
scalar IntersectionExampleScenario.node[34].veinsmobility 	totalDistance 	577.85158538818
scalar IntersectionExampleScenario.node[34].veinsmobility 	totalCO2Emission 	137.22573862471
scalar IntersectionExampleScenario.node[35].appl 	VehicleRemoved 	0
scalar IntersectionExampleScenario.node[35].appl 	ArrivedAtDest 	1
scalar IntersectionExampleScenario.node[35].appl 	IntersectionEnterTime 	74.25
scalar IntersectionExampleScenario.node[35].appl 	IntersectionExitTime 	96.787450797478
scalar IntersectionExampleScenario.node[35].appl 	NumberOfCollisions 	0
scalar IntersectionExampleScenario.node[35].nic.phy80211p 	busyTime 	0
scalar IntersectionExampleScenario.node[35].nic.mac1609_4 	ReceivedUnicastPackets 	0
scalar IntersectionExampleScenario.node[35].nic.mac1609_4 	ReceivedBroadcasts 	0
scalar IntersectionExampleScenario.node[35].nic.mac1609_4 	SentPackets 	0
scalar IntersectionExampleScenario.node[35].nic.mac1609_4 	SNIRLostPackets 	0
scalar IntersectionExampleScenario.node[35].nic.mac1609_4 	RXTXLostPackets 	0
scalar IntersectionExampleScenario.node[35].nic.mac1609_4 	TotalLostPackets 	0
scalar IntersectionExampleScenario.node[35].nic.mac1609_4 	DroppedPacketsInMac 	0
scalar IntersectionExampleScenario.node[35].nic.mac1609_4 	TooLittleTime 	0
scalar IntersectionExampleScenario.node[35].nic.mac1609_4 	TimesIntoBackoff 	0
scalar IntersectionExampleScenario.node[35].nic.mac1609_4 	SlotsBackoff 	0
scalar IntersectionExampleScenario.node[35].nic.mac1609_4 	NumInternalContention 	0
scalar IntersectionExampleScenario.node[35].nic.mac1609_4 	totalBusyTime 	0
scalar IntersectionExampleScenario.node[35].veinsmobility 	startTime 	74.25
scalar IntersectionExampleScenario.node[35].veinsmobility 	totalTime 	37.25
scalar IntersectionExampleScenario.node[35].veinsmobility 	stopTime 	111.75
scalar IntersectionExampleScenario.node[35].veinsmobility 	minSpeed 	5.6500000953674
scalar IntersectionExampleScenario.node[35].veinsmobility 	maxSpeed 	16.739950180054
scalar IntersectionExampleScenario.node[35].veinsmobility 	totalDistance 	557.52666473389
scalar IntersectionExampleScenario.node[35].veinsmobility 	totalCO2Emission 	122.71907261811
scalar IntersectionExampleScenario.node[36].appl 	VehicleRemoved 	0
scalar IntersectionExampleScenario.node[36].appl 	ArrivedAtDest 	1
scalar IntersectionExampleScenario.node[36].appl 	IntersectionEnterTime 	74.25
scalar IntersectionExampleScenario.node[36].appl 	IntersectionExitTime 	98.067099605309
scalar IntersectionExampleScenario.node[36].appl 	NumberOfCollisions 	0
scalar IntersectionExampleScenario.node[36].nic.phy80211p 	busyTime 	0
scalar IntersectionExampleScenario.node[36].nic.mac1609_4 	ReceivedUnicastPackets 	0
scalar IntersectionExampleScenario.node[36].nic.mac1609_4 	ReceivedBroadcasts 	0
scalar IntersectionExampleScenario.node[36].nic.mac1609_4 	SentPackets 	0
scalar IntersectionExampleScenario.node[36].nic.mac1609_4 	SNIRLostPackets 	0
scalar IntersectionExampleScenario.node[36].nic.mac1609_4 	RXTXLostPackets 	0
scalar IntersectionExampleScenario.node[36].nic.mac1609_4 	TotalLostPackets 	0
scalar IntersectionExampleScenario.node[36].nic.mac1609_4 	DroppedPacketsInMac 	0
scalar IntersectionExampleScenario.node[36].nic.mac1609_4 	TooLittleTime 	0
scalar IntersectionExampleScenario.node[36].nic.mac1609_4 	TimesIntoBackoff 	0
scalar IntersectionExampleScenario.node[36].nic.mac1609_4 	SlotsBackoff 	0
scalar IntersectionExampleScenario.node[36].nic.mac1609_4 	NumInternalContention 	0
scalar IntersectionExampleScenario.node[36].nic.mac1609_4 	totalBusyTime 	0
scalar IntersectionExampleScenario.node[36].veinsmobility 	startTime 	74.25
scalar IntersectionExampleScenario.node[36].veinsmobility 	totalTime 	40.5
scalar IntersectionExampleScenario.node[36].veinsmobility 	stopTime 	115
scalar IntersectionExampleScenario.node[36].veinsmobility 	minSpeed 	5.6500000953674
scalar IntersectionExampleScenario.node[36].veinsmobility 	maxSpeed 	15.25
scalar IntersectionExampleScenario.node[36].veinsmobility 	totalDistance 	543.1367026125
scalar IntersectionExampleScenario.node[36].veinsmobility 	totalCO2Emission 	124.62723935095
scalar IntersectionExampleScenario.node[27].appl 	VehicleRemoved 	0
scalar IntersectionExampleScenario.node[27].appl 	ArrivedAtDest 	1
scalar IntersectionExampleScenario.node[27].appl 	IntersectionEnterTime 	54.5
scalar IntersectionExampleScenario.node[27].appl 	IntersectionExitTime 	99.610496767098
scalar IntersectionExampleScenario.node[27].appl 	NumberOfCollisions 	0
scalar IntersectionExampleScenario.node[27].nic.phy80211p 	busyTime 	0
scalar IntersectionExampleScenario.node[27].nic.mac1609_4 	ReceivedUnicastPackets 	0
scalar IntersectionExampleScenario.node[27].nic.mac1609_4 	ReceivedBroadcasts 	0
scalar IntersectionExampleScenario.node[27].nic.mac1609_4 	SentPackets 	0
scalar IntersectionExampleScenario.node[27].nic.mac1609_4 	SNIRLostPackets 	0
scalar IntersectionExampleScenario.node[27].nic.mac1609_4 	RXTXLostPackets 	0
scalar IntersectionExampleScenario.node[27].nic.mac1609_4 	TotalLostPackets 	0
scalar IntersectionExampleScenario.node[27].nic.mac1609_4 	DroppedPacketsInMac 	0
scalar IntersectionExampleScenario.node[27].nic.mac1609_4 	TooLittleTime 	0
scalar IntersectionExampleScenario.node[27].nic.mac1609_4 	TimesIntoBackoff 	0
scalar IntersectionExampleScenario.node[27].nic.mac1609_4 	SlotsBackoff 	0
scalar IntersectionExampleScenario.node[27].nic.mac1609_4 	NumInternalContention 	0
scalar IntersectionExampleScenario.node[27].nic.mac1609_4 	totalBusyTime 	0
scalar IntersectionExampleScenario.node[27].veinsmobility 	startTime 	54.5
scalar IntersectionExampleScenario.node[27].veinsmobility 	totalTime 	61
scalar IntersectionExampleScenario.node[27].veinsmobility 	stopTime 	115.75
scalar IntersectionExampleScenario.node[27].veinsmobility 	minSpeed 	0
scalar IntersectionExampleScenario.node[27].veinsmobility 	maxSpeed 	16.5
scalar IntersectionExampleScenario.node[27].veinsmobility 	totalDistance 	546.36792661101
scalar IntersectionExampleScenario.node[27].veinsmobility 	totalCO2Emission 	155.63289201706
scalar IntersectionExampleScenario.node[32].appl 	VehicleRemoved 	0
scalar IntersectionExampleScenario.node[32].appl 	ArrivedAtDest 	1
scalar IntersectionExampleScenario.node[32].appl 	IntersectionEnterTime 	64.5
scalar IntersectionExampleScenario.node[32].appl 	IntersectionExitTime 	101.32855514117
scalar IntersectionExampleScenario.node[32].appl 	NumberOfCollisions 	0
scalar IntersectionExampleScenario.node[32].nic.phy80211p 	busyTime 	0
scalar IntersectionExampleScenario.node[32].nic.mac1609_4 	ReceivedUnicastPackets 	0
scalar IntersectionExampleScenario.node[32].nic.mac1609_4 	ReceivedBroadcasts 	0
scalar IntersectionExampleScenario.node[32].nic.mac1609_4 	SentPackets 	0
scalar IntersectionExampleScenario.node[32].nic.mac1609_4 	SNIRLostPackets 	0
scalar IntersectionExampleScenario.node[32].nic.mac1609_4 	RXTXLostPackets 	0
scalar IntersectionExampleScenario.node[32].nic.mac1609_4 	TotalLostPackets 	0
scalar IntersectionExampleScenario.node[32].nic.mac1609_4 	DroppedPacketsInMac 	0
scalar IntersectionExampleScenario.node[32].nic.mac1609_4 	TooLittleTime 	0
scalar IntersectionExampleScenario.node[32].nic.mac1609_4 	TimesIntoBackoff 	0
scalar IntersectionExampleScenario.node[32].nic.mac1609_4 	SlotsBackoff 	0
scalar IntersectionExampleScenario.node[32].nic.mac1609_4 	NumInternalContention 	0
scalar IntersectionExampleScenario.node[32].nic.mac1609_4 	totalBusyTime 	0
scalar IntersectionExampleScenario.node[32].veinsmobility 	startTime 	64.5
scalar IntersectionExampleScenario.node[32].veinsmobility 	totalTime 	53.25
scalar IntersectionExampleScenario.node[32].veinsmobility 	stopTime 	118
scalar IntersectionExampleScenario.node[32].veinsmobility 	minSpeed 	0
scalar IntersectionExampleScenario.node[32].veinsmobility 	maxSpeed 	15.02499961853
scalar IntersectionExampleScenario.node[32].veinsmobility 	totalDistance 	552.9097442627
scalar IntersectionExampleScenario.node[32].veinsmobility 	totalCO2Emission 	138.95828360217
scalar IntersectionExampleScenario.node[30].appl 	VehicleRemoved 	0
scalar IntersectionExampleScenario.node[30].appl 	ArrivedAtDest 	1
scalar IntersectionExampleScenario.node[30].appl 	IntersectionEnterTime 	62.75
scalar IntersectionExampleScenario.node[30].appl 	IntersectionExitTime 	110.31417022896
scalar IntersectionExampleScenario.node[30].appl 	NumberOfCollisions 	0
scalar IntersectionExampleScenario.node[30].nic.phy80211p 	busyTime 	0
scalar IntersectionExampleScenario.node[30].nic.mac1609_4 	ReceivedUnicastPackets 	0
scalar IntersectionExampleScenario.node[30].nic.mac1609_4 	ReceivedBroadcasts 	0
scalar IntersectionExampleScenario.node[30].nic.mac1609_4 	SentPackets 	0
scalar IntersectionExampleScenario.node[30].nic.mac1609_4 	SNIRLostPackets 	0
scalar IntersectionExampleScenario.node[30].nic.mac1609_4 	RXTXLostPackets 	0
scalar IntersectionExampleScenario.node[30].nic.mac1609_4 	TotalLostPackets 	0
scalar IntersectionExampleScenario.node[30].nic.mac1609_4 	DroppedPacketsInMac 	0
scalar IntersectionExampleScenario.node[30].nic.mac1609_4 	TooLittleTime 	0
scalar IntersectionExampleScenario.node[30].nic.mac1609_4 	TimesIntoBackoff 	0
scalar IntersectionExampleScenario.node[30].nic.mac1609_4 	SlotsBackoff 	0
scalar IntersectionExampleScenario.node[30].nic.mac1609_4 	NumInternalContention 	0
scalar IntersectionExampleScenario.node[30].nic.mac1609_4 	totalBusyTime 	0
scalar IntersectionExampleScenario.node[30].veinsmobility 	startTime 	62.75
scalar IntersectionExampleScenario.node[30].veinsmobility 	totalTime 	63.75
scalar IntersectionExampleScenario.node[30].veinsmobility 	stopTime 	126.75
scalar IntersectionExampleScenario.node[30].veinsmobility 	minSpeed 	0
scalar IntersectionExampleScenario.node[30].veinsmobility 	maxSpeed 	15.375
scalar IntersectionExampleScenario.node[30].veinsmobility 	totalDistance 	549.86316026797
scalar IntersectionExampleScenario.node[30].veinsmobility 	totalCO2Emission 	154.94794840614
scalar IntersectionExampleScenario.node[31].appl 	VehicleRemoved 	0
scalar IntersectionExampleScenario.node[31].appl 	ArrivedAtDest 	1
scalar IntersectionExampleScenario.node[31].appl 	IntersectionEnterTime 	63.75
scalar IntersectionExampleScenario.node[31].appl 	IntersectionExitTime 	112.01425049212
scalar IntersectionExampleScenario.node[31].appl 	NumberOfCollisions 	0
scalar IntersectionExampleScenario.node[31].nic.phy80211p 	busyTime 	0
scalar IntersectionExampleScenario.node[31].nic.mac1609_4 	ReceivedUnicastPackets 	0
scalar IntersectionExampleScenario.node[31].nic.mac1609_4 	ReceivedBroadcasts 	0
scalar IntersectionExampleScenario.node[31].nic.mac1609_4 	SentPackets 	0
scalar IntersectionExampleScenario.node[31].nic.mac1609_4 	SNIRLostPackets 	0
scalar IntersectionExampleScenario.node[31].nic.mac1609_4 	RXTXLostPackets 	0
scalar IntersectionExampleScenario.node[31].nic.mac1609_4 	TotalLostPackets 	0
scalar IntersectionExampleScenario.node[31].nic.mac1609_4 	DroppedPacketsInMac 	0
scalar IntersectionExampleScenario.node[31].nic.mac1609_4 	TooLittleTime 	0
scalar IntersectionExampleScenario.node[31].nic.mac1609_4 	TimesIntoBackoff 	0
scalar IntersectionExampleScenario.node[31].nic.mac1609_4 	SlotsBackoff 	0
scalar IntersectionExampleScenario.node[31].nic.mac1609_4 	NumInternalContention 	0
scalar IntersectionExampleScenario.node[31].nic.mac1609_4 	totalBusyTime 	0
scalar IntersectionExampleScenario.node[31].veinsmobility 	startTime 	63.75
scalar IntersectionExampleScenario.node[31].veinsmobility 	totalTime 	65.75
scalar IntersectionExampleScenario.node[31].veinsmobility 	stopTime 	129.75
scalar IntersectionExampleScenario.node[31].veinsmobility 	minSpeed 	0
scalar IntersectionExampleScenario.node[31].veinsmobility 	maxSpeed 	14.412044525146
scalar IntersectionExampleScenario.node[31].veinsmobility 	totalDistance 	572.162116433
scalar IntersectionExampleScenario.node[31].veinsmobility 	totalCO2Emission 	151.42699175832
scalar IntersectionExampleScenario.node[37].appl 	VehicleRemoved 	0
scalar IntersectionExampleScenario.node[37].appl 	ArrivedAtDest 	1
scalar IntersectionExampleScenario.node[37].appl 	IntersectionEnterTime 	76
scalar IntersectionExampleScenario.node[37].appl 	IntersectionExitTime 	118.57455876379
scalar IntersectionExampleScenario.node[37].appl 	NumberOfCollisions 	0
scalar IntersectionExampleScenario.node[37].nic.phy80211p 	busyTime 	0
scalar IntersectionExampleScenario.node[37].nic.mac1609_4 	ReceivedUnicastPackets 	0
scalar IntersectionExampleScenario.node[37].nic.mac1609_4 	ReceivedBroadcasts 	0
scalar IntersectionExampleScenario.node[37].nic.mac1609_4 	SentPackets 	0
scalar IntersectionExampleScenario.node[37].nic.mac1609_4 	SNIRLostPackets 	0
scalar IntersectionExampleScenario.node[37].nic.mac1609_4 	RXTXLostPackets 	0
scalar IntersectionExampleScenario.node[37].nic.mac1609_4 	TotalLostPackets 	0
scalar IntersectionExampleScenario.node[37].nic.mac1609_4 	DroppedPacketsInMac 	0
scalar IntersectionExampleScenario.node[37].nic.mac1609_4 	TooLittleTime 	0
scalar IntersectionExampleScenario.node[37].nic.mac1609_4 	TimesIntoBackoff 	0
scalar IntersectionExampleScenario.node[37].nic.mac1609_4 	SlotsBackoff 	0
scalar IntersectionExampleScenario.node[37].nic.mac1609_4 	NumInternalContention 	0
scalar IntersectionExampleScenario.node[37].nic.mac1609_4 	totalBusyTime 	0
scalar IntersectionExampleScenario.node[37].veinsmobility 	startTime 	76
scalar IntersectionExampleScenario.node[37].veinsmobility 	totalTime 	58.75
scalar IntersectionExampleScenario.node[37].veinsmobility 	stopTime 	135
scalar IntersectionExampleScenario.node[37].veinsmobility 	minSpeed 	0
scalar IntersectionExampleScenario.node[37].veinsmobility 	maxSpeed 	16.5
scalar IntersectionExampleScenario.node[37].veinsmobility 	totalDistance 	567.9001760617
scalar IntersectionExampleScenario.node[37].veinsmobility 	totalCO2Emission 	163.52733747109
scalar IntersectionExampleScenario.node[38].appl 	VehicleRemoved 	0
scalar IntersectionExampleScenario.node[38].appl 	ArrivedAtDest 	1
scalar IntersectionExampleScenario.node[38].appl 	IntersectionEnterTime 	76.75
scalar IntersectionExampleScenario.node[38].appl 	IntersectionExitTime 	119.25446816295
scalar IntersectionExampleScenario.node[38].appl 	NumberOfCollisions 	0
scalar IntersectionExampleScenario.node[38].nic.phy80211p 	busyTime 	0
scalar IntersectionExampleScenario.node[38].nic.mac1609_4 	ReceivedUnicastPackets 	0
scalar IntersectionExampleScenario.node[38].nic.mac1609_4 	ReceivedBroadcasts 	0
scalar IntersectionExampleScenario.node[38].nic.mac1609_4 	SentPackets 	0
scalar IntersectionExampleScenario.node[38].nic.mac1609_4 	SNIRLostPackets 	0
scalar IntersectionExampleScenario.node[38].nic.mac1609_4 	RXTXLostPackets 	0
scalar IntersectionExampleScenario.node[38].nic.mac1609_4 	TotalLostPackets 	0
scalar IntersectionExampleScenario.node[38].nic.mac1609_4 	DroppedPacketsInMac 	0
scalar IntersectionExampleScenario.node[38].nic.mac1609_4 	TooLittleTime 	0
scalar IntersectionExampleScenario.node[38].nic.mac1609_4 	TimesIntoBackoff 	0
scalar IntersectionExampleScenario.node[38].nic.mac1609_4 	SlotsBackoff 	0
scalar IntersectionExampleScenario.node[38].nic.mac1609_4 	NumInternalContention 	0
scalar IntersectionExampleScenario.node[38].nic.mac1609_4 	totalBusyTime 	0
scalar IntersectionExampleScenario.node[38].veinsmobility 	startTime 	76.75
scalar IntersectionExampleScenario.node[38].veinsmobility 	totalTime 	58.25
scalar IntersectionExampleScenario.node[38].veinsmobility 	stopTime 	135.25
scalar IntersectionExampleScenario.node[38].veinsmobility 	minSpeed 	0
scalar IntersectionExampleScenario.node[38].veinsmobility 	maxSpeed 	15.683166503906
scalar IntersectionExampleScenario.node[38].veinsmobility 	totalDistance 	566.75743103027
scalar IntersectionExampleScenario.node[38].veinsmobility 	totalCO2Emission 	156.49711721118
scalar IntersectionExampleScenario.node[39].appl 	VehicleRemoved 	0
scalar IntersectionExampleScenario.node[39].appl 	ArrivedAtDest 	1
scalar IntersectionExampleScenario.node[39].appl 	IntersectionEnterTime 	79.25
scalar IntersectionExampleScenario.node[39].appl 	IntersectionExitTime 	120.03351359221
scalar IntersectionExampleScenario.node[39].appl 	NumberOfCollisions 	0
scalar IntersectionExampleScenario.node[39].nic.phy80211p 	busyTime 	0
scalar IntersectionExampleScenario.node[39].nic.mac1609_4 	ReceivedUnicastPackets 	0
scalar IntersectionExampleScenario.node[39].nic.mac1609_4 	ReceivedBroadcasts 	0
scalar IntersectionExampleScenario.node[39].nic.mac1609_4 	SentPackets 	0
scalar IntersectionExampleScenario.node[39].nic.mac1609_4 	SNIRLostPackets 	0
scalar IntersectionExampleScenario.node[39].nic.mac1609_4 	RXTXLostPackets 	0
scalar IntersectionExampleScenario.node[39].nic.mac1609_4 	TotalLostPackets 	0
scalar IntersectionExampleScenario.node[39].nic.mac1609_4 	DroppedPacketsInMac 	0
scalar IntersectionExampleScenario.node[39].nic.mac1609_4 	TooLittleTime 	0
scalar IntersectionExampleScenario.node[39].nic.mac1609_4 	TimesIntoBackoff 	0
[...]
scalar IntersectionExampleScenario.node[794].veinsmobility 	totalDistance 	293.4730758667
scalar IntersectionExampleScenario.node[794].veinsmobility 	totalCO2Emission 	77.783318085549
scalar IntersectionExampleScenario.node[795].appl 	VehicleRemoved 	0
scalar IntersectionExampleScenario.node[795].appl 	ArrivedAtDest 	0
scalar IntersectionExampleScenario.node[795].appl 	IntersectionEnterTime 	1773.25
scalar IntersectionExampleScenario.node[795].appl 	IntersectionExitTime 	-1
scalar IntersectionExampleScenario.node[795].appl 	NumberOfCollisions 	0
scalar IntersectionExampleScenario.node[795].nic.phy80211p 	busyTime 	0
scalar IntersectionExampleScenario.node[795].nic.mac1609_4 	ReceivedUnicastPackets 	0
scalar IntersectionExampleScenario.node[795].nic.mac1609_4 	ReceivedBroadcasts 	0
scalar IntersectionExampleScenario.node[795].nic.mac1609_4 	SentPackets 	0
scalar IntersectionExampleScenario.node[795].nic.mac1609_4 	SNIRLostPackets 	0
scalar IntersectionExampleScenario.node[795].nic.mac1609_4 	RXTXLostPackets 	0
scalar IntersectionExampleScenario.node[795].nic.mac1609_4 	TotalLostPackets 	0
scalar IntersectionExampleScenario.node[795].nic.mac1609_4 	DroppedPacketsInMac 	0
scalar IntersectionExampleScenario.node[795].nic.mac1609_4 	TooLittleTime 	0
scalar IntersectionExampleScenario.node[795].nic.mac1609_4 	TimesIntoBackoff 	0
scalar IntersectionExampleScenario.node[795].nic.mac1609_4 	SlotsBackoff 	0
scalar IntersectionExampleScenario.node[795].nic.mac1609_4 	NumInternalContention 	0
scalar IntersectionExampleScenario.node[795].nic.mac1609_4 	totalBusyTime 	0
scalar IntersectionExampleScenario.node[795].veinsmobility 	startTime 	1773.25
scalar IntersectionExampleScenario.node[795].veinsmobility 	totalTime 	26.75
scalar IntersectionExampleScenario.node[795].veinsmobility 	stopTime 	1800
scalar IntersectionExampleScenario.node[795].veinsmobility 	minSpeed 	0
scalar IntersectionExampleScenario.node[795].veinsmobility 	maxSpeed 	15.02499961853
scalar IntersectionExampleScenario.node[795].veinsmobility 	totalDistance 	287.42188262939
scalar IntersectionExampleScenario.node[795].veinsmobility 	totalCO2Emission 	69.381246502533
scalar IntersectionExampleScenario.node[796].appl 	VehicleRemoved 	0
scalar IntersectionExampleScenario.node[796].appl 	ArrivedAtDest 	0
scalar IntersectionExampleScenario.node[796].appl 	IntersectionEnterTime 	1776.25
scalar IntersectionExampleScenario.node[796].appl 	IntersectionExitTime 	-1
scalar IntersectionExampleScenario.node[796].appl 	NumberOfCollisions 	0
scalar IntersectionExampleScenario.node[796].nic.phy80211p 	busyTime 	0
scalar IntersectionExampleScenario.node[796].nic.mac1609_4 	ReceivedUnicastPackets 	0
scalar IntersectionExampleScenario.node[796].nic.mac1609_4 	ReceivedBroadcasts 	0
scalar IntersectionExampleScenario.node[796].nic.mac1609_4 	SentPackets 	0
scalar IntersectionExampleScenario.node[796].nic.mac1609_4 	SNIRLostPackets 	0
scalar IntersectionExampleScenario.node[796].nic.mac1609_4 	RXTXLostPackets 	0
scalar IntersectionExampleScenario.node[796].nic.mac1609_4 	TotalLostPackets 	0
scalar IntersectionExampleScenario.node[796].nic.mac1609_4 	DroppedPacketsInMac 	0
scalar IntersectionExampleScenario.node[796].nic.mac1609_4 	TooLittleTime 	0
scalar IntersectionExampleScenario.node[796].nic.mac1609_4 	TimesIntoBackoff 	0
scalar IntersectionExampleScenario.node[796].nic.mac1609_4 	SlotsBackoff 	0
scalar IntersectionExampleScenario.node[796].nic.mac1609_4 	NumInternalContention 	0
scalar IntersectionExampleScenario.node[796].nic.mac1609_4 	totalBusyTime 	0
scalar IntersectionExampleScenario.node[796].veinsmobility 	startTime 	1776.25
scalar IntersectionExampleScenario.node[796].veinsmobility 	totalTime 	23.75
scalar IntersectionExampleScenario.node[796].veinsmobility 	stopTime 	1800
scalar IntersectionExampleScenario.node[796].veinsmobility 	minSpeed 	0
scalar IntersectionExampleScenario.node[796].veinsmobility 	maxSpeed 	15.64999961853
scalar IntersectionExampleScenario.node[796].veinsmobility 	totalDistance 	287.42190551758
scalar IntersectionExampleScenario.node[796].veinsmobility 	totalCO2Emission 	67.292604411092
scalar IntersectionExampleScenario.node[797].appl 	VehicleRemoved 	0
scalar IntersectionExampleScenario.node[797].appl 	ArrivedAtDest 	0
scalar IntersectionExampleScenario.node[797].appl 	IntersectionEnterTime 	1777.5
scalar IntersectionExampleScenario.node[797].appl 	IntersectionExitTime 	-1
scalar IntersectionExampleScenario.node[797].appl 	NumberOfCollisions 	0
scalar IntersectionExampleScenario.node[797].nic.phy80211p 	busyTime 	0
scalar IntersectionExampleScenario.node[797].nic.mac1609_4 	ReceivedUnicastPackets 	0
scalar IntersectionExampleScenario.node[797].nic.mac1609_4 	ReceivedBroadcasts 	0
scalar IntersectionExampleScenario.node[797].nic.mac1609_4 	SentPackets 	0
scalar IntersectionExampleScenario.node[797].nic.mac1609_4 	SNIRLostPackets 	0
scalar IntersectionExampleScenario.node[797].nic.mac1609_4 	RXTXLostPackets 	0
scalar IntersectionExampleScenario.node[797].nic.mac1609_4 	TotalLostPackets 	0
scalar IntersectionExampleScenario.node[797].nic.mac1609_4 	DroppedPacketsInMac 	0
scalar IntersectionExampleScenario.node[797].nic.mac1609_4 	TooLittleTime 	0
scalar IntersectionExampleScenario.node[797].nic.mac1609_4 	TimesIntoBackoff 	0
scalar IntersectionExampleScenario.node[797].nic.mac1609_4 	SlotsBackoff 	0
scalar IntersectionExampleScenario.node[797].nic.mac1609_4 	NumInternalContention 	0
scalar IntersectionExampleScenario.node[797].nic.mac1609_4 	totalBusyTime 	0
scalar IntersectionExampleScenario.node[797].veinsmobility 	startTime 	1777.5
scalar IntersectionExampleScenario.node[797].veinsmobility 	totalTime 	22.5
scalar IntersectionExampleScenario.node[797].veinsmobility 	stopTime 	1800
scalar IntersectionExampleScenario.node[797].veinsmobility 	minSpeed 	4.3233065605164
scalar IntersectionExampleScenario.node[797].veinsmobility 	maxSpeed 	15.64999961853
scalar IntersectionExampleScenario.node[797].veinsmobility 	totalDistance 	250.24993896484
scalar IntersectionExampleScenario.node[797].veinsmobility 	totalCO2Emission 	66.492193875285
scalar IntersectionExampleScenario.node[798].appl 	VehicleRemoved 	0
scalar IntersectionExampleScenario.node[798].appl 	ArrivedAtDest 	0
scalar IntersectionExampleScenario.node[798].appl 	IntersectionEnterTime 	1778
scalar IntersectionExampleScenario.node[798].appl 	IntersectionExitTime 	-1
scalar IntersectionExampleScenario.node[798].appl 	NumberOfCollisions 	0
scalar IntersectionExampleScenario.node[798].nic.phy80211p 	busyTime 	0
scalar IntersectionExampleScenario.node[798].nic.mac1609_4 	ReceivedUnicastPackets 	0
scalar IntersectionExampleScenario.node[798].nic.mac1609_4 	ReceivedBroadcasts 	0
scalar IntersectionExampleScenario.node[798].nic.mac1609_4 	SentPackets 	0
scalar IntersectionExampleScenario.node[798].nic.mac1609_4 	SNIRLostPackets 	0
scalar IntersectionExampleScenario.node[798].nic.mac1609_4 	RXTXLostPackets 	0
scalar IntersectionExampleScenario.node[798].nic.mac1609_4 	TotalLostPackets 	0
scalar IntersectionExampleScenario.node[798].nic.mac1609_4 	DroppedPacketsInMac 	0
scalar IntersectionExampleScenario.node[798].nic.mac1609_4 	TooLittleTime 	0
scalar IntersectionExampleScenario.node[798].nic.mac1609_4 	TimesIntoBackoff 	0
scalar IntersectionExampleScenario.node[798].nic.mac1609_4 	SlotsBackoff 	0
scalar IntersectionExampleScenario.node[798].nic.mac1609_4 	NumInternalContention 	0
scalar IntersectionExampleScenario.node[798].nic.mac1609_4 	totalBusyTime 	0
scalar IntersectionExampleScenario.node[798].veinsmobility 	startTime 	1778
scalar IntersectionExampleScenario.node[798].veinsmobility 	totalTime 	22
scalar IntersectionExampleScenario.node[798].veinsmobility 	stopTime 	1800
scalar IntersectionExampleScenario.node[798].veinsmobility 	minSpeed 	2.2693676948547
scalar IntersectionExampleScenario.node[798].veinsmobility 	maxSpeed 	15.602480888367
scalar IntersectionExampleScenario.node[798].veinsmobility 	totalDistance 	276.79523468018
scalar IntersectionExampleScenario.node[798].veinsmobility 	totalCO2Emission 	64.013067433909
scalar IntersectionExampleScenario.node[799].appl 	VehicleRemoved 	0
scalar IntersectionExampleScenario.node[799].appl 	ArrivedAtDest 	0
scalar IntersectionExampleScenario.node[799].appl 	IntersectionEnterTime 	1779
scalar IntersectionExampleScenario.node[799].appl 	IntersectionExitTime 	-1
scalar IntersectionExampleScenario.node[799].appl 	NumberOfCollisions 	0
scalar IntersectionExampleScenario.node[799].nic.phy80211p 	busyTime 	0
scalar IntersectionExampleScenario.node[799].nic.mac1609_4 	ReceivedUnicastPackets 	0
scalar IntersectionExampleScenario.node[799].nic.mac1609_4 	ReceivedBroadcasts 	0
scalar IntersectionExampleScenario.node[799].nic.mac1609_4 	SentPackets 	0
scalar IntersectionExampleScenario.node[799].nic.mac1609_4 	SNIRLostPackets 	0
scalar IntersectionExampleScenario.node[799].nic.mac1609_4 	RXTXLostPackets 	0
scalar IntersectionExampleScenario.node[799].nic.mac1609_4 	TotalLostPackets 	0
scalar IntersectionExampleScenario.node[799].nic.mac1609_4 	DroppedPacketsInMac 	0
scalar IntersectionExampleScenario.node[799].nic.mac1609_4 	TooLittleTime 	0
scalar IntersectionExampleScenario.node[799].nic.mac1609_4 	TimesIntoBackoff 	0
scalar IntersectionExampleScenario.node[799].nic.mac1609_4 	SlotsBackoff 	0
scalar IntersectionExampleScenario.node[799].nic.mac1609_4 	NumInternalContention 	0
scalar IntersectionExampleScenario.node[799].nic.mac1609_4 	totalBusyTime 	0
scalar IntersectionExampleScenario.node[799].veinsmobility 	startTime 	1779
scalar IntersectionExampleScenario.node[799].veinsmobility 	totalTime 	21
scalar IntersectionExampleScenario.node[799].veinsmobility 	stopTime 	1800
scalar IntersectionExampleScenario.node[799].veinsmobility 	minSpeed 	4.9134683609009
scalar IntersectionExampleScenario.node[799].veinsmobility 	maxSpeed 	15.725407600403
scalar IntersectionExampleScenario.node[799].veinsmobility 	totalDistance 	287.22518920898
scalar IntersectionExampleScenario.node[799].veinsmobility 	totalCO2Emission 	65.779143300887
scalar IntersectionExampleScenario.node[800].appl 	VehicleRemoved 	0
scalar IntersectionExampleScenario.node[800].appl 	ArrivedAtDest 	0
scalar IntersectionExampleScenario.node[800].appl 	IntersectionEnterTime 	1780.25
scalar IntersectionExampleScenario.node[800].appl 	IntersectionExitTime 	-1
scalar IntersectionExampleScenario.node[800].appl 	NumberOfCollisions 	0
scalar IntersectionExampleScenario.node[800].nic.phy80211p 	busyTime 	0
scalar IntersectionExampleScenario.node[800].nic.mac1609_4 	ReceivedUnicastPackets 	0
scalar IntersectionExampleScenario.node[800].nic.mac1609_4 	ReceivedBroadcasts 	0
scalar IntersectionExampleScenario.node[800].nic.mac1609_4 	SentPackets 	0
scalar IntersectionExampleScenario.node[800].nic.mac1609_4 	SNIRLostPackets 	0
scalar IntersectionExampleScenario.node[800].nic.mac1609_4 	RXTXLostPackets 	0
scalar IntersectionExampleScenario.node[800].nic.mac1609_4 	TotalLostPackets 	0
scalar IntersectionExampleScenario.node[800].nic.mac1609_4 	DroppedPacketsInMac 	0
scalar IntersectionExampleScenario.node[800].nic.mac1609_4 	TooLittleTime 	0
scalar IntersectionExampleScenario.node[800].nic.mac1609_4 	TimesIntoBackoff 	0
scalar IntersectionExampleScenario.node[800].nic.mac1609_4 	SlotsBackoff 	0
scalar IntersectionExampleScenario.node[800].nic.mac1609_4 	NumInternalContention 	0
scalar IntersectionExampleScenario.node[800].nic.mac1609_4 	totalBusyTime 	0
scalar IntersectionExampleScenario.node[800].veinsmobility 	startTime 	1780.25
scalar IntersectionExampleScenario.node[800].veinsmobility 	totalTime 	19.75
scalar IntersectionExampleScenario.node[800].veinsmobility 	stopTime 	1800
scalar IntersectionExampleScenario.node[800].veinsmobility 	minSpeed 	5.6500000953674
scalar IntersectionExampleScenario.node[800].veinsmobility 	maxSpeed 	16.002861022949
scalar IntersectionExampleScenario.node[800].veinsmobility 	totalDistance 	248.30773925781
scalar IntersectionExampleScenario.node[800].veinsmobility 	totalCO2Emission 	60.659583604221
scalar IntersectionExampleScenario.node[801].appl 	VehicleRemoved 	0
scalar IntersectionExampleScenario.node[801].appl 	ArrivedAtDest 	0
scalar IntersectionExampleScenario.node[801].appl 	IntersectionEnterTime 	1781.5
scalar IntersectionExampleScenario.node[801].appl 	IntersectionExitTime 	-1
scalar IntersectionExampleScenario.node[801].appl 	NumberOfCollisions 	0
scalar IntersectionExampleScenario.node[801].nic.phy80211p 	busyTime 	0
scalar IntersectionExampleScenario.node[801].nic.mac1609_4 	ReceivedUnicastPackets 	0
scalar IntersectionExampleScenario.node[801].nic.mac1609_4 	ReceivedBroadcasts 	0
scalar IntersectionExampleScenario.node[801].nic.mac1609_4 	SentPackets 	0
scalar IntersectionExampleScenario.node[801].nic.mac1609_4 	SNIRLostPackets 	0
scalar IntersectionExampleScenario.node[801].nic.mac1609_4 	RXTXLostPackets 	0
scalar IntersectionExampleScenario.node[801].nic.mac1609_4 	TotalLostPackets 	0
scalar IntersectionExampleScenario.node[801].nic.mac1609_4 	DroppedPacketsInMac 	0
scalar IntersectionExampleScenario.node[801].nic.mac1609_4 	TooLittleTime 	0
scalar IntersectionExampleScenario.node[801].nic.mac1609_4 	TimesIntoBackoff 	0
scalar IntersectionExampleScenario.node[801].nic.mac1609_4 	SlotsBackoff 	0
scalar IntersectionExampleScenario.node[801].nic.mac1609_4 	NumInternalContention 	0
scalar IntersectionExampleScenario.node[801].nic.mac1609_4 	totalBusyTime 	0
scalar IntersectionExampleScenario.node[801].veinsmobility 	startTime 	1781.5
scalar IntersectionExampleScenario.node[801].veinsmobility 	totalTime 	18.5
scalar IntersectionExampleScenario.node[801].veinsmobility 	stopTime 	1800
scalar IntersectionExampleScenario.node[801].veinsmobility 	minSpeed 	5.6500000953674
scalar IntersectionExampleScenario.node[801].veinsmobility 	maxSpeed 	15.64999961853
scalar IntersectionExampleScenario.node[801].veinsmobility 	totalDistance 	230.99500274658
scalar IntersectionExampleScenario.node[801].veinsmobility 	totalCO2Emission 	54.486601854719
scalar IntersectionExampleScenario.node[802].appl 	VehicleRemoved 	0
scalar IntersectionExampleScenario.node[802].appl 	ArrivedAtDest 	0
scalar IntersectionExampleScenario.node[802].appl 	IntersectionEnterTime 	1784.75
scalar IntersectionExampleScenario.node[802].appl 	IntersectionExitTime 	-1
scalar IntersectionExampleScenario.node[802].appl 	NumberOfCollisions 	0
scalar IntersectionExampleScenario.node[802].nic.phy80211p 	busyTime 	0
scalar IntersectionExampleScenario.node[802].nic.mac1609_4 	ReceivedUnicastPackets 	0
scalar IntersectionExampleScenario.node[802].nic.mac1609_4 	ReceivedBroadcasts 	0
scalar IntersectionExampleScenario.node[802].nic.mac1609_4 	SentPackets 	0
scalar IntersectionExampleScenario.node[802].nic.mac1609_4 	SNIRLostPackets 	0
scalar IntersectionExampleScenario.node[802].nic.mac1609_4 	RXTXLostPackets 	0
scalar IntersectionExampleScenario.node[802].nic.mac1609_4 	TotalLostPackets 	0
scalar IntersectionExampleScenario.node[802].nic.mac1609_4 	DroppedPacketsInMac 	0
scalar IntersectionExampleScenario.node[802].nic.mac1609_4 	TooLittleTime 	0
scalar IntersectionExampleScenario.node[802].nic.mac1609_4 	TimesIntoBackoff 	0
scalar IntersectionExampleScenario.node[802].nic.mac1609_4 	SlotsBackoff 	0
scalar IntersectionExampleScenario.node[802].nic.mac1609_4 	NumInternalContention 	0
scalar IntersectionExampleScenario.node[802].nic.mac1609_4 	totalBusyTime 	0
scalar IntersectionExampleScenario.node[802].veinsmobility 	startTime 	1784.75
scalar IntersectionExampleScenario.node[802].veinsmobility 	totalTime 	15.25
scalar IntersectionExampleScenario.node[802].veinsmobility 	stopTime 	1800
scalar IntersectionExampleScenario.node[802].veinsmobility 	minSpeed 	5.6500000953674
scalar IntersectionExampleScenario.node[802].veinsmobility 	maxSpeed 	15.02499961853
scalar IntersectionExampleScenario.node[802].veinsmobility 	totalDistance 	204.65322875977
scalar IntersectionExampleScenario.node[802].veinsmobility 	totalCO2Emission 	52.153949528956
scalar IntersectionExampleScenario.node[803].appl 	VehicleRemoved 	0
scalar IntersectionExampleScenario.node[803].appl 	ArrivedAtDest 	0
scalar IntersectionExampleScenario.node[803].appl 	IntersectionEnterTime 	1788
scalar IntersectionExampleScenario.node[803].appl 	IntersectionExitTime 	-1
scalar IntersectionExampleScenario.node[803].appl 	NumberOfCollisions 	0
scalar IntersectionExampleScenario.node[803].nic.phy80211p 	busyTime 	0
scalar IntersectionExampleScenario.node[803].nic.mac1609_4 	ReceivedUnicastPackets 	0
scalar IntersectionExampleScenario.node[803].nic.mac1609_4 	ReceivedBroadcasts 	0
scalar IntersectionExampleScenario.node[803].nic.mac1609_4 	SentPackets 	0
scalar IntersectionExampleScenario.node[803].nic.mac1609_4 	SNIRLostPackets 	0
scalar IntersectionExampleScenario.node[803].nic.mac1609_4 	RXTXLostPackets 	0
scalar IntersectionExampleScenario.node[803].nic.mac1609_4 	TotalLostPackets 	0
scalar IntersectionExampleScenario.node[803].nic.mac1609_4 	DroppedPacketsInMac 	0
scalar IntersectionExampleScenario.node[803].nic.mac1609_4 	TooLittleTime 	0
scalar IntersectionExampleScenario.node[803].nic.mac1609_4 	TimesIntoBackoff 	0
scalar IntersectionExampleScenario.node[803].nic.mac1609_4 	SlotsBackoff 	0
scalar IntersectionExampleScenario.node[803].nic.mac1609_4 	NumInternalContention 	0
scalar IntersectionExampleScenario.node[803].nic.mac1609_4 	totalBusyTime 	0
scalar IntersectionExampleScenario.node[803].veinsmobility 	startTime 	1788
scalar IntersectionExampleScenario.node[803].veinsmobility 	totalTime 	12
scalar IntersectionExampleScenario.node[803].veinsmobility 	stopTime 	1800
scalar IntersectionExampleScenario.node[803].veinsmobility 	minSpeed 	5.6500000953674
scalar IntersectionExampleScenario.node[803].veinsmobility 	maxSpeed 	15.385828971863
scalar IntersectionExampleScenario.node[803].veinsmobility 	totalDistance 	162.58123779297
scalar IntersectionExampleScenario.node[803].veinsmobility 	totalCO2Emission 	49.177726798323
scalar IntersectionExampleScenario.node[804].appl 	VehicleRemoved 	0
scalar IntersectionExampleScenario.node[804].appl 	ArrivedAtDest 	0
scalar IntersectionExampleScenario.node[804].appl 	IntersectionEnterTime 	1788.75
scalar IntersectionExampleScenario.node[804].appl 	IntersectionExitTime 	-1
scalar IntersectionExampleScenario.node[804].appl 	NumberOfCollisions 	0
scalar IntersectionExampleScenario.node[804].nic.phy80211p 	busyTime 	0
scalar IntersectionExampleScenario.node[804].nic.mac1609_4 	ReceivedUnicastPackets 	0
scalar IntersectionExampleScenario.node[804].nic.mac1609_4 	ReceivedBroadcasts 	0
scalar IntersectionExampleScenario.node[804].nic.mac1609_4 	SentPackets 	0
scalar IntersectionExampleScenario.node[804].nic.mac1609_4 	SNIRLostPackets 	0
scalar IntersectionExampleScenario.node[804].nic.mac1609_4 	RXTXLostPackets 	0
scalar IntersectionExampleScenario.node[804].nic.mac1609_4 	TotalLostPackets 	0
scalar IntersectionExampleScenario.node[804].nic.mac1609_4 	DroppedPacketsInMac 	0
scalar IntersectionExampleScenario.node[804].nic.mac1609_4 	TooLittleTime 	0
scalar IntersectionExampleScenario.node[804].nic.mac1609_4 	TimesIntoBackoff 	0
scalar IntersectionExampleScenario.node[804].nic.mac1609_4 	SlotsBackoff 	0
scalar IntersectionExampleScenario.node[804].nic.mac1609_4 	NumInternalContention 	0
scalar IntersectionExampleScenario.node[804].nic.mac1609_4 	totalBusyTime 	0
scalar IntersectionExampleScenario.node[804].veinsmobility 	startTime 	1788.75
scalar IntersectionExampleScenario.node[804].veinsmobility 	totalTime 	11.25
scalar IntersectionExampleScenario.node[804].veinsmobility 	stopTime 	1800
scalar IntersectionExampleScenario.node[804].veinsmobility 	minSpeed 	5.6500000953674
scalar IntersectionExampleScenario.node[804].veinsmobility 	maxSpeed 	15.02499961853
scalar IntersectionExampleScenario.node[804].veinsmobility 	totalDistance 	145.98574066162
scalar IntersectionExampleScenario.node[804].veinsmobility 	totalCO2Emission 	44.017609663771
