version 2
run nodebug-41-20200606-13:43:41-21956
attr configname nodebug
attr datetime 20200606-13:43:41
attr experiment nodebug
attr inifile omnetpp.ini
attr iterationvars ""
attr iterationvars2 $repetition=41
attr measurement ""
attr network "\"org.car2x.veins.modules.application.ExtTraCIScenarioManagerLaunchd.IntersectionExampleScenario\""
attr processid 21956
attr repetition 41
attr replication #41
attr resultdir results
attr runnumber 41
attr seedset 41
param **.coreDebug false
param **.debug false
param *.**.nic.mac1609_4.bitrate 18Mbps
param *.**.nic.mac1609_4.txPower 20mW
param *.**.nic.mac1609_4.useServiceChannel false
param *.**.nic.phy80211p.analogueModels "xmldoc(\"config.xml\")"
param *.**.nic.phy80211p.decider "xmldoc(\"config.xml\")"
param *.**.nic.phy80211p.sensitivity -89dBm
param *.**.nic.phy80211p.thermalNoise -110dBm
param *.**.nic.phy80211p.usePropagationDelay true
param *.**.nic.phy80211p.useThermalNoise true
param *.annotations.draw false
param *.connectionManager.alpha 2.0
param *.connectionManager.carrierFrequency "5.890e9 Hz"
param *.connectionManager.pMax 20mW
param *.connectionManager.sat -89dBm
param *.connectionManager.sendDirect true
param *.manager.autoShutdown true
param *.manager.host "\"localhost\""
param *.manager.launchConfig "xmldoc(\"paramics.launchd.xml\")"
param *.manager.margin 25
param *.manager.moduleDisplayString "\"\""
param *.manager.moduleName "\"node\""
param *.manager.moduleType "\"org.car2x.veins.nodes.Car\""
param *.manager.port 9999
param *.manager.updateInterval 250ms
param *.node[*0].veinsmobility.accidentCount 0
param *.node[*0].veinsmobility.accidentDuration 30s
param *.node[*0].veinsmobility.accidentStart 75s
param *.node[*].appl.LiderSelectZoneRadio 55.0
param *.node[*].appl.ShareDataZoneRadio 110.0
param *.node[*].appl.TiempoSemaforo 30.0
param *.node[*].appl.beaconInterval 1s
param *.node[*].appl.beaconPriority 3
param *.node[*].appl.dataOnSch false
param *.node[*].appl.dataPriority 2
param *.node[*].appl.debug false
param *.node[*].appl.headerLength "256 bit"
param *.node[*].appl.maxOffset 0.005s
param *.node[*].appl.sendBeacons false
param *.node[*].appl.sendData true
param *.node[*].applType "\"Dummy\""
param *.node[*].mobilityType "\"TraCIMobility\""
param *.node[*].mobilityType.debug true
param *.node[*].veinsmobility.x 0
param *.node[*].veinsmobility.y 0
param *.node[*].veinsmobility.z 1.895
param *.node[*].veinsmobilityType "\"org.car2x.veins.modules.mobility.traci.TraCIMobility\""
param *.node[*].veinsmobilityType.debug true
param *.playgroundSizeX 8500m
param *.playgroundSizeY 8500m
param *.playgroundSizeZ 50m
param *.world.use2D false
param *.world.useTorus false

vector 95352  IntersectionExampleScenario.manager  vehiclesinsim  ETV
attr type  int
vector 95353  IntersectionExampleScenario.manager  realtime  ETV
attr type  int
attr unit  s
vector 95356  IntersectionExampleScenario.node[0].veinsmobility  posx  ETV
vector 95357  IntersectionExampleScenario.node[0].veinsmobility  posy  ETV
vector 95358  IntersectionExampleScenario.node[0].veinsmobility  speed  ETV
vector 95359  IntersectionExampleScenario.node[0].veinsmobility  acceleration  ETV
vector 95360  IntersectionExampleScenario.node[0].veinsmobility  co2emission  ETV
vector 95363  IntersectionExampleScenario.node[1].veinsmobility  posx  ETV
vector 95364  IntersectionExampleScenario.node[1].veinsmobility  posy  ETV
vector 95365  IntersectionExampleScenario.node[1].veinsmobility  speed  ETV
vector 95366  IntersectionExampleScenario.node[1].veinsmobility  acceleration  ETV
vector 95367  IntersectionExampleScenario.node[1].veinsmobility  co2emission  ETV
vector 95370  IntersectionExampleScenario.node[2].veinsmobility  posx  ETV
vector 95371  IntersectionExampleScenario.node[2].veinsmobility  posy  ETV
vector 95372  IntersectionExampleScenario.node[2].veinsmobility  speed  ETV
vector 95373  IntersectionExampleScenario.node[2].veinsmobility  acceleration  ETV
vector 95374  IntersectionExampleScenario.node[2].veinsmobility  co2emission  ETV
vector 95377  IntersectionExampleScenario.node[3].veinsmobility  posx  ETV
vector 95378  IntersectionExampleScenario.node[3].veinsmobility  posy  ETV
vector 95379  IntersectionExampleScenario.node[3].veinsmobility  speed  ETV
vector 95380  IntersectionExampleScenario.node[3].veinsmobility  acceleration  ETV
vector 95381  IntersectionExampleScenario.node[3].veinsmobility  co2emission  ETV
vector 95384  IntersectionExampleScenario.node[4].veinsmobility  posx  ETV
vector 95385  IntersectionExampleScenario.node[4].veinsmobility  posy  ETV
vector 95391  IntersectionExampleScenario.node[5].veinsmobility  posx  ETV
vector 95392  IntersectionExampleScenario.node[5].veinsmobility  posy  ETV
vector 95386  IntersectionExampleScenario.node[4].veinsmobility  speed  ETV
vector 95393  IntersectionExampleScenario.node[5].veinsmobility  speed  ETV
vector 95387  IntersectionExampleScenario.node[4].veinsmobility  acceleration  ETV
vector 95388  IntersectionExampleScenario.node[4].veinsmobility  co2emission  ETV
vector 95394  IntersectionExampleScenario.node[5].veinsmobility  acceleration  ETV
vector 95395  IntersectionExampleScenario.node[5].veinsmobility  co2emission  ETV
vector 95398  IntersectionExampleScenario.node[6].veinsmobility  posx  ETV
vector 95399  IntersectionExampleScenario.node[6].veinsmobility  posy  ETV
vector 95400  IntersectionExampleScenario.node[6].veinsmobility  speed  ETV
vector 95401  IntersectionExampleScenario.node[6].veinsmobility  acceleration  ETV
vector 95402  IntersectionExampleScenario.node[6].veinsmobility  co2emission  ETV
vector 95405  IntersectionExampleScenario.node[7].veinsmobility  posx  ETV
vector 95406  IntersectionExampleScenario.node[7].veinsmobility  posy  ETV
vector 95412  IntersectionExampleScenario.node[8].veinsmobility  posx  ETV
vector 95413  IntersectionExampleScenario.node[8].veinsmobility  posy  ETV
vector 95407  IntersectionExampleScenario.node[7].veinsmobility  speed  ETV
vector 95408  IntersectionExampleScenario.node[7].veinsmobility  acceleration  ETV
vector 95409  IntersectionExampleScenario.node[7].veinsmobility  co2emission  ETV
vector 95414  IntersectionExampleScenario.node[8].veinsmobility  speed  ETV
vector 95419  IntersectionExampleScenario.node[9].veinsmobility  posx  ETV
vector 95420  IntersectionExampleScenario.node[9].veinsmobility  posy  ETV
vector 95415  IntersectionExampleScenario.node[8].veinsmobility  acceleration  ETV
vector 95416  IntersectionExampleScenario.node[8].veinsmobility  co2emission  ETV
vector 95421  IntersectionExampleScenario.node[9].veinsmobility  speed  ETV
vector 95422  IntersectionExampleScenario.node[9].veinsmobility  acceleration  ETV
vector 95423  IntersectionExampleScenario.node[9].veinsmobility  co2emission  ETV
vector 95426  IntersectionExampleScenario.node[10].veinsmobility  posx  ETV
vector 95427  IntersectionExampleScenario.node[10].veinsmobility  posy  ETV
vector 95428  IntersectionExampleScenario.node[10].veinsmobility  speed  ETV
vector 95429  IntersectionExampleScenario.node[10].veinsmobility  acceleration  ETV
vector 95430  IntersectionExampleScenario.node[10].veinsmobility  co2emission  ETV
vector 95433  IntersectionExampleScenario.node[11].veinsmobility  posx  ETV
vector 95434  IntersectionExampleScenario.node[11].veinsmobility  posy  ETV
vector 95435  IntersectionExampleScenario.node[11].veinsmobility  speed  ETV
vector 95436  IntersectionExampleScenario.node[11].veinsmobility  acceleration  ETV
vector 95437  IntersectionExampleScenario.node[11].veinsmobility  co2emission  ETV
vector 95440  IntersectionExampleScenario.node[12].veinsmobility  posx  ETV
vector 95441  IntersectionExampleScenario.node[12].veinsmobility  posy  ETV
vector 95447  IntersectionExampleScenario.node[13].veinsmobility  posx  ETV
vector 95448  IntersectionExampleScenario.node[13].veinsmobility  posy  ETV
vector 95442  IntersectionExampleScenario.node[12].veinsmobility  speed  ETV
vector 95443  IntersectionExampleScenario.node[12].veinsmobility  acceleration  ETV
vector 95444  IntersectionExampleScenario.node[12].veinsmobility  co2emission  ETV
vector 95449  IntersectionExampleScenario.node[13].veinsmobility  speed  ETV
vector 95450  IntersectionExampleScenario.node[13].veinsmobility  acceleration  ETV
vector 95451  IntersectionExampleScenario.node[13].veinsmobility  co2emission  ETV
vector 95454  IntersectionExampleScenario.node[14].veinsmobility  posx  ETV
vector 95455  IntersectionExampleScenario.node[14].veinsmobility  posy  ETV
vector 95456  IntersectionExampleScenario.node[14].veinsmobility  speed  ETV
vector 95457  IntersectionExampleScenario.node[14].veinsmobility  acceleration  ETV
vector 95458  IntersectionExampleScenario.node[14].veinsmobility  co2emission  ETV
vector 95461  IntersectionExampleScenario.node[15].veinsmobility  posx  ETV
vector 95462  IntersectionExampleScenario.node[15].veinsmobility  posy  ETV
vector 95463  IntersectionExampleScenario.node[15].veinsmobility  speed  ETV
vector 95468  IntersectionExampleScenario.node[16].veinsmobility  posx  ETV
vector 95469  IntersectionExampleScenario.node[16].veinsmobility  posy  ETV
vector 95464  IntersectionExampleScenario.node[15].veinsmobility  acceleration  ETV
vector 95465  IntersectionExampleScenario.node[15].veinsmobility  co2emission  ETV
vector 95475  IntersectionExampleScenario.node[17].veinsmobility  posx  ETV
vector 95476  IntersectionExampleScenario.node[17].veinsmobility  posy  ETV
vector 95470  IntersectionExampleScenario.node[16].veinsmobility  speed  ETV
vector 95471  IntersectionExampleScenario.node[16].veinsmobility  acceleration  ETV
vector 95472  IntersectionExampleScenario.node[16].veinsmobility  co2emission  ETV
vector 95477  IntersectionExampleScenario.node[17].veinsmobility  speed  ETV
vector 95478  IntersectionExampleScenario.node[17].veinsmobility  acceleration  ETV
vector 95479  IntersectionExampleScenario.node[17].veinsmobility  co2emission  ETV
vector 95482  IntersectionExampleScenario.node[18].veinsmobility  posx  ETV
vector 95483  IntersectionExampleScenario.node[18].veinsmobility  posy  ETV
vector 95484  IntersectionExampleScenario.node[18].veinsmobility  speed  ETV
vector 95485  IntersectionExampleScenario.node[18].veinsmobility  acceleration  ETV
vector 95486  IntersectionExampleScenario.node[18].veinsmobility  co2emission  ETV
vector 95489  IntersectionExampleScenario.node[19].veinsmobility  posx  ETV
vector 95490  IntersectionExampleScenario.node[19].veinsmobility  posy  ETV
vector 95491  IntersectionExampleScenario.node[19].veinsmobility  speed  ETV
vector 95492  IntersectionExampleScenario.node[19].veinsmobility  acceleration  ETV
vector 95493  IntersectionExampleScenario.node[19].veinsmobility  co2emission  ETV
vector 95496  IntersectionExampleScenario.node[20].veinsmobility  posx  ETV
vector 95497  IntersectionExampleScenario.node[20].veinsmobility  posy  ETV
vector 95503  IntersectionExampleScenario.node[21].veinsmobility  posx  ETV
vector 95504  IntersectionExampleScenario.node[21].veinsmobility  posy  ETV
vector 95498  IntersectionExampleScenario.node[20].veinsmobility  speed  ETV
vector 95499  IntersectionExampleScenario.node[20].veinsmobility  acceleration  ETV
vector 95500  IntersectionExampleScenario.node[20].veinsmobility  co2emission  ETV
vector 95505  IntersectionExampleScenario.node[21].veinsmobility  speed  ETV
vector 95506  IntersectionExampleScenario.node[21].veinsmobility  acceleration  ETV
vector 95507  IntersectionExampleScenario.node[21].veinsmobility  co2emission  ETV
vector 95510  IntersectionExampleScenario.node[22].veinsmobility  posx  ETV
vector 95511  IntersectionExampleScenario.node[22].veinsmobility  posy  ETV
vector 95517  IntersectionExampleScenario.node[23].veinsmobility  posx  ETV
vector 95518  IntersectionExampleScenario.node[23].veinsmobility  posy  ETV
vector 95512  IntersectionExampleScenario.node[22].veinsmobility  speed  ETV
95367	22	1.75	5.2162187258585
95367	27	2	5.6304533568076
95367	32	2.25	6.0461819274774
95367	37	2.5	6.4635356930995
95367	42	2.75	6.8826618500064
95367	47	3	7.303684162087
95367	52	3.25	7.726741696285
95367	57	3.5	8.1519697732254
95367	62	3.75	8.5795037135332
95367	67	4	9.0094788378334
95367	72	4.25	9.442030466751
95367	77	4.5	9.8772939209111
95367	82	4.75	10.315404520939
95367	87	5	10.756497587458
95367	92	5.25	11.200708441096
95367	97	5.5	11.648172402475
95367	102	5.75	0.973
95367	109	6	1.0387497758803
95367	116	6.25	1.3252132505989
95367	123	6.5	1.5386387660984
95367	130	6.75	1.6979048576853
95367	137	7	1.8169208174224
95367	146	7.25	1.9059274193085
95367	155	7.5	1.9725301143653
95367	164	7.75	2.0224165362199
95367	173	8	2.0597724415391
95367	186	8.25	2.0877782333538
95367	199	8.5	2.1087578503676
95367	212	8.75	2.1244916202817
95367	225	9	2.1362874854253
95367	238	9.25	2.1451212981554
95367	253	9.5	2.1517487149779
95367	268	9.75	2.156718452374
95367	283	10	2.1604558659037
95367	298	10.25	2.1632481399713
95367	313	10.5	2.165342176774
95367	328	10.75	2.1669302407558
95367	343	11	2.1681072362506
95367	358	11.25	2.1689829005813
95367	373	11.5	2.1696395811173
95367	388	11.75	2.1701461439672
95367	403	12	2.1705155296751
95367	418	12.25	2.1708031250798
95367	433	12.5	2.1710082883922
95367	448	12.75	2.1711727186896
95367	463	13	2.1712819807262
95367	478	13.25	2.1713638733497
95367	493	13.5	2.1714464098118
95367	510	13.75	2.1714872486139
95367	529	14	2.1715284093974
95367	548	14.25	2.1715557783314
95367	569	14.5	2.1715692480933
95367	590	14.75	2.1715828251961
95367	611	15	2.1716106234884
95367	632	15.25	2.1716104087859
95367	653	15.5	2.1716101940834
95367	674	15.75	2.1716240932235
95367	695	16	2.1716239858714
95367	716	16.25	2.1716379923618
95367	737	16.5	2.1716379923618
95367	758	16.75	2.1716379923618
95367	779	17	2.1716379923618
95367	800	17.25	2.1716379923618
95367	821	17.5	2.1716379923618
95367	842	17.75	2.1716379923618
95367	863	18	2.1716379923618
95367	884	18.25	2.1716379923618
95367	905	18.5	2.1716379923618
95367	926	18.75	2.1716379923618
95367	947	19	2.1716379923618
95367	968	19.25	2.1716379923618
95367	989	19.5	2.1716379923618
95367	1010	19.75	0.973
95367	1031	20	0.973
95367	1052	20.25	0.973
95367	1073	20.5	0.973
95367	1094	20.75	0.973
95367	1117	21	0.973
95367	1140	21.25	0.973
95367	1163	21.5	0.973
95367	1186	21.75	0.973
95367	1209	22	0.973
95367	1232	22.25	0.973
95367	1255	22.5	1.47936595584
95367	1278	22.75	1.47936595584
95367	1301	23	1.47936595584
95367	1324	23.25	1.47936595584
95367	1347	23.5	1.47936595584
95367	1370	23.75	1.47936595584
95367	1393	24	1.47936595584
95367	1416	24.25	1.47936595584
95367	1439	24.5	1.47936595584
95367	1462	24.75	1.47936595584
95367	1484	25	3.24219357038
95367	1505	25.25	5.26236092522
95367	1526	25.5	6.6142134161825
95367	1549	25.75	7.03400420352
95367	1572	26	7.4557436078575
95367	1595	26.25	7.87956694982
95367	1618	26.5	8.3056095500325
95367	1641	26.75	8.73400672912
95367	1666	27	9.1648938077075
95367	1693	27.25	9.59840610642
95367	1720	27.5	10.034678945883
95367	1747	27.75	10.47384764672
95367	1774	28	10.916047529558
95367	1800	28.25	11.36141391502
95367	1825	28.5	2.1190101790782
95367	1850	28.75	2.1321777962251
95367	1875	29	2.1420398020004
95367	1900	29.25	2.1494486023529
95367	1925	29.5	2.1549936728685
95367	1950	29.75	2.159155418716
95367	1974	30	2.1622764132547
95367	1999	30.25	2.1646169820571
95367	2024	30.5	2.1663687804081
95367	2049	30.75	2.1676966607876
95367	2074	31	2.1686820340495
95367	2099	31.25	2.1694210463347
95367	2126	31.5	2.1699682385849
95367	2153	31.75	2.1703785735947
95367	2182	32	2.1707074390162
95367	2213	32.25	2.17092596567
95367	2244	32.5	2.171117980216
95367	2275	32.75	2.1712409270085
95367	2306	33	2.1713366116096
95367	2336	33.25	2.1714189334538
95367	2365	33.5	2.1714736714671
95367	2394	33.75	2.1715147249226
95367	2423	34	2.17154198652
95367	2452	34.25	2.1715694627906
95367	2481	34.5	2.1715830398951
95367	2510	34.75	2.1715967243431
95367	2539	35	2.1716105161371
95367	2570	35.25	2.1716103014346
95367	2601	35.5	2.1716242005756
95367	2631	35.75	2.1716240932235
95367	2660	36	2.1716239858714
95367	2689	36.25	2.1716379923618
95367	2718	36.5	2.1716379923618
95367	2747	36.75	2.1716379923618
95367	2776	37	2.1716379923618
95367	2805	37.25	2.1716379923618
95367	2834	37.5	2.1716379923618
95367	2865	37.75	2.1716379923618
95367	2896	38	2.1716379923618
95367	2927	38.25	2.1716379923618
95367	2958	38.5	2.1716379923618
95367	2989	38.75	2.1716379923618
95367	3020	39	2.1716379923618
95367	3051	39.25	2.1716379923618
95367	3082	39.5	2.1716379923618
95367	3115	39.75	2.1716379923618
95367	3150	40	2.1716379923618
95367	3185	40.25	2.1716379923618
95367	3220	40.5	2.1716379923618
95367	3255	40.75	2.1716379923618
95367	3290	41	2.1716379923618
95367	3325	41.25	2.1716379923618
95367	3362	41.5	2.1716379923618
95366	22	1.75	2.5
95366	27	2	2.5
95366	32	2.25	2.5
95366	37	2.5	2.4999980926514
95366	42	2.75	2.5
95366	47	3	2.5
95366	52	3.25	2.5
95366	57	3.5	2.5
95366	62	3.75	2.5
95366	67	4	2.5
95366	72	4.25	2.5
95366	77	4.5	2.5
95366	82	4.75	2.5
95366	87	5	2.5
95366	92	5.25	2.5
95366	97	5.5	2.5
95366	102	5.75	-0.41465759277344
95366	109	6	-0.31099700927734
95366	116	6.25	-0.23324584960938
95366	123	6.5	-0.17493438720703
95366	130	6.75	-0.13120269775391
95366	137	7	-0.098400115966797
95366	146	7.25	-0.073799133300781
95366	155	7.5	-0.055351257324219
95366	164	7.75	-0.041511535644531
95366	173	8	-0.031135559082031
95366	186	8.25	-0.023349761962891
95366	199	8.5	-0.017513275146484
95366	212	8.75	-0.013134002685547
95366	225	9	-0.0098495483398438
95366	238	9.25	-0.0073890686035156
95366	253	9.5	-0.0055427551269531
95366	268	9.75	-0.0041580200195312
95366	283	10	-0.0031166076660156
95366	298	10.25	-0.0023384094238281
95366	313	10.5	-0.0017547607421875
95366	328	10.75	-0.001312255859375
95366	343	11	-0.00098419189453125
95366	358	11.25	-0.00074005126953125
95366	373	11.5	-0.00055694580078125
95366	388	11.75	-0.00041580200195312
95366	403	12	-0.00031280517578125
95366	418	12.25	-0.00023269653320312
95366	433	12.5	-0.00017547607421875
95366	448	12.75	-0.00012969970703125
95366	463	13	-9.918212890625e-005
95366	478	13.25	-7.62939453125e-005
95366	493	13.5	-5.340576171875e-005
95366	510	13.75	-4.1961669921875e-005
95366	529	14	-3.0517578125e-005
95366	548	14.25	-2.288818359375e-005
95366	569	14.5	-1.9073486328125e-005
95366	590	14.75	-1.52587890625e-005
95366	611	15	-7.62939453125e-006
95366	632	15.25	-7.62939453125e-006
95366	653	15.5	-7.62939453125e-006
95366	674	15.75	-3.814697265625e-006
95366	695	16	-3.814697265625e-006
95366	716	16.25	0
95366	737	16.5	0
95366	758	16.75	0
95366	779	17	0
95366	800	17.25	0
95366	821	17.5	0
95366	842	17.75	0
95366	863	18	0
95366	884	18.25	0
95366	905	18.5	0
95366	926	18.75	0
95366	947	19	0
95366	968	19.25	0
95366	989	19.5	0
95366	1010	19.75	-2.826904296875
95366	1031	20	-2.8633422851562
95366	1052	20.25	-2.9031982421875
95366	1073	20.5	-2.9473075866699
95366	1094	20.75	-2.9968452453613
95366	1117	21	-3.0536117553711
95366	1140	21.25	-3.1205139160156
95366	1163	21.5	-3.2028045654297
95366	1186	21.75	-3.3115196228027
95366	1209	22	-3.47731590271
95366	1232	22.25	-2.2380046844482
95366	1255	22.5	0
95366	1278	22.75	0
95366	1301	23	0
95366	1324	23.25	0
95366	1347	23.5	0
95366	1370	23.75	0
95366	1393	24	0
95366	1416	24.25	0
95366	1439	24.5	0
95366	1462	24.75	0
95366	1484	25	1
95366	1505	25.25	2
95366	1526	25.5	2.5
95366	1549	25.75	2.5
95366	1572	26	2.5
95366	1595	26.25	2.5
95366	1618	26.5	2.5
95366	1641	26.75	2.5
95366	1666	27	2.5
95366	1693	27.25	2.5
95366	1720	27.5	2.5
95366	1747	27.75	2.5
95366	1774	28	2.5
95366	1800	28.25	2.5
95366	1825	28.5	-0.014659881591797
95366	1850	28.75	-0.010993957519531
95366	1875	29	-0.0082473754882812
95366	1900	29.25	-0.0061836242675781
95366	1925	29.5	-0.004638671875
95366	1950	29.75	-0.00347900390625
95366	1974	30	-0.0026092529296875
95366	1999	30.25	-0.0019569396972656
95366	2024	30.5	-0.0014686584472656
95366	2049	30.75	-0.0010986328125
95366	2074	31	-0.000823974609375
95366	2099	31.25	-0.00061798095703125
95366	2126	31.5	-0.00046539306640625
95366	2153	31.75	-0.0003509521484375
95366	2182	32	-0.0002593994140625
95366	2213	32.25	-0.0001983642578125
95366	2244	32.5	-0.00014495849609375
95366	2275	32.75	-0.00011062622070312
95366	2306	33	-8.392333984375e-005
95366	2336	33.25	-6.103515625e-005
95366	2365	33.5	-4.57763671875e-005
95366	2394	33.75	-3.4332275390625e-005
95366	2423	34	-2.6702880859375e-005
95366	2452	34.25	-1.9073486328125e-005
95366	2481	34.5	-1.52587890625e-005
95366	2510	34.75	-1.1444091796875e-005
95366	2539	35	-7.62939453125e-006
95366	2570	35.25	-7.62939453125e-006
95366	2601	35.5	-3.814697265625e-006
95366	2631	35.75	-3.814697265625e-006
95366	2660	36	-3.814697265625e-006
95366	2689	36.25	0
95366	2718	36.5	0
95366	2747	36.75	0
95366	2776	37	0
95366	2805	37.25	0
95366	2834	37.5	0
95366	2865	37.75	0
95366	2896	38	0
95366	2927	38.25	0
95366	2958	38.5	0
95366	2989	38.75	0
95366	3020	39	0
95366	3051	39.25	0
95366	3082	39.5	0
95366	3115	39.75	0
95366	3150	40	0
95366	3185	40.25	0
95366	3220	40.5	0
95366	3255	40.75	0
95366	3290	41	0
95366	3325	41.25	0
95366	3362	41.5	0
95365	17	1.5	5.6500000953674
95365	22	1.75	6.2750000953674
95365	27	2	6.9000000953674
95365	32	2.25	7.5250000953674
95365	37	2.5	8.1499996185303
95365	42	2.75	8.7749996185303
95365	47	3	9.3999996185303
95365	52	3.25	10.02499961853
95365	57	3.5	10.64999961853
95365	62	3.75	11.27499961853
95365	67	4	11.89999961853
95365	72	4.25	12.52499961853
95365	77	4.5	13.14999961853
95365	82	4.75	13.77499961853
95365	87	5	14.39999961853
95365	92	5.25	15.02499961853
95365	97	5.5	15.64999961853
95365	102	5.75	15.546335220337
95365	109	6	15.468585968018
95365	116	6.25	15.410274505615
95365	123	6.5	15.366540908813
95365	130	6.75	15.333740234375
95365	137	7	15.309140205383
95365	146	7.25	15.290690422058
95365	155	7.5	15.276852607727
95365	164	7.75	15.266474723816
95365	173	8	15.258690834045
95365	186	8.25	15.252853393555
95365	199	8.5	15.248475074768
95365	212	8.75	15.245191574097
95365	225	9	15.242729187012
95365	238	9.25	15.240881919861
95365	253	9.5	15.239496231079
95365	268	9.75	15.238456726074
95365	283	10	15.237677574158
95365	298	10.25	15.237092971802
95365	313	10.5	15.236654281616
95365	328	10.75	15.236326217651
95365	343	11	15.236080169678
95365	358	11.25	15.23589515686
95365	373	11.5	15.23575592041
95365	388	11.75	15.23565196991
95365	403	12	15.235573768616
95365	418	12.25	15.235515594482
95365	433	12.5	15.235471725464
95365	448	12.75	15.235439300537
95365	463	13	15.235414505005
95365	478	13.25	15.235395431519
95365	493	13.5	15.235382080078
95365	510	13.75	15.235371589661
95365	529	14	15.235363960266
95365	548	14.25	15.23535823822
95365	569	14.5	15.235353469849
95365	590	14.75	15.235349655151
95365	611	15	15.235347747803
95365	632	15.25	15.235345840454
95365	653	15.5	15.235343933105
95365	674	15.75	15.235342979431
95365	695	16	15.235342025757
95365	716	16.25	15.235342025757
95365	737	16.5	15.235342025757
95365	758	16.75	15.235342025757
95365	779	17	15.235342025757
95365	800	17.25	15.235342025757
95365	821	17.5	15.235342025757
95365	842	17.75	15.235342025757
95365	863	18	15.235342025757
95365	884	18.25	15.235342025757
95365	905	18.5	15.235342025757
95365	926	18.75	15.235342025757
95365	947	19	15.235342025757
95365	968	19.25	15.235342025757
95365	989	19.5	15.235342025757
95365	1010	19.75	14.528615951538
95365	1031	20	13.812780380249
95365	1052	20.25	13.086980819702
95365	1073	20.5	12.350153923035
95365	1094	20.75	11.600942611694
95365	1117	21	10.837539672852
95365	1140	21.25	10.057411193848
95365	1163	21.5	9.2567100524902
95365	1186	21.75	8.4288301467896
95365	1209	22	7.5595011711121
95365	1232	22.25	7
95365	1255	22.5	7
95365	1278	22.75	7
95365	1301	23	7
95365	1324	23.25	7
95365	1347	23.5	7
95365	1370	23.75	7
95365	1393	24	7
95365	1416	24.25	7
95365	1439	24.5	7
95365	1462	24.75	7
95365	1484	25	7.25
95365	1505	25.25	7.75
95365	1526	25.5	8.375
95365	1549	25.75	9
95365	1572	26	9.625
95365	1595	26.25	10.25
95365	1618	26.5	10.875
95365	1641	26.75	11.5
95365	1666	27	12.125
95365	1693	27.25	12.75
95365	1720	27.5	13.375
95365	1747	27.75	14
95365	1774	28	14.625
95365	1800	28.25	15.25
95365	1825	28.5	15.246335029602
95365	1850	28.75	15.243586540222
95365	1875	29	15.24152469635
95365	1900	29.25	15.239978790283
95365	1925	29.5	15.238819122314
95365	1950	29.75	15.237949371338
95365	1974	30	15.237297058105
95365	1999	30.25	15.236807823181
95365	2024	30.5	15.236440658569
95365	2049	30.75	15.236166000366
95365	2074	31	15.235960006714
95365	2099	31.25	15.235805511475
95365	2126	31.5	15.235689163208
95365	2153	31.75	15.235601425171
95365	2182	32	15.235536575317
95365	2213	32.25	15.235486984253
95365	2244	32.5	15.235450744629
95365	2275	32.75	15.235423088074
95365	2306	33	15.235402107239
95365	2336	33.25	15.23538684845
95365	2365	33.5	15.235375404358
95365	2394	33.75	15.235366821289
95365	2423	34	15.235360145569
95365	2452	34.25	15.235355377197
95365	2481	34.5	15.2353515625
95365	2510	34.75	15.235348701477
95365	2539	35	15.235346794128
95365	2570	35.25	15.23534488678
95365	2601	35.5	15.235343933105
95365	2631	35.75	15.235342979431
95365	2660	36	15.235342025757
95365	2689	36.25	15.235342025757
95365	2718	36.5	15.235342025757
95365	2747	36.75	15.235342025757
95365	2776	37	15.235342025757
95365	2805	37.25	15.235342025757
95365	2834	37.5	15.235342025757
95365	2865	37.75	15.235342025757
95365	2896	38	15.235342025757
95365	2927	38.25	15.235342025757
95365	2958	38.5	15.235342025757
95365	2989	38.75	15.235342025757
95365	3020	39	15.235342025757
95365	3051	39.25	15.235342025757
95365	3082	39.5	15.235342025757
95365	3115	39.75	15.235342025757
95365	3150	40	15.235342025757
95365	3185	40.25	15.235342025757
95365	3220	40.5	15.235342025757
95365	3255	40.75	15.235342025757
95365	3290	41	15.235342025757
95365	3325	41.25	15.235342025757
95365	3362	41.5	15.235342025757
95364	12	1.25	486.85000610352
95364	17	1.5	486.85000610352
95364	22	1.75	486.85000610352
95364	27	2	486.85000610352
95364	32	2.25	486.85000610352
95364	37	2.5	486.85000610352
95364	42	2.75	486.85000610352
95364	47	3	486.85000610352
95364	52	3.25	486.85000610352
95364	57	3.5	486.85000610352
95364	62	3.75	486.85000610352
95364	67	4	486.85000610352
95364	72	4.25	486.85000610352
95364	77	4.5	486.85000610352
95364	82	4.75	486.85000610352
95364	87	5	486.85000610352
95364	92	5.25	486.85000610352
95364	97	5.5	486.85000610352
95364	102	5.75	486.85000610352
95364	109	6	486.85000610352
95364	116	6.25	486.85000610352
95364	123	6.5	486.85000610352
95364	130	6.75	486.85000610352
95364	137	7	486.85000610352
95364	146	7.25	486.85000610352
95364	155	7.5	486.85000610352
95364	164	7.75	486.85000610352
95364	173	8	486.85000610352
95364	186	8.25	486.85000610352
95364	199	8.5	486.85000610352
95364	212	8.75	486.85000610352
95364	225	9	486.85000610352
95364	238	9.25	486.85000610352
95364	253	9.5	486.85000610352
95364	268	9.75	486.85000610352
95364	283	10	486.85000610352
95364	298	10.25	486.85000610352
95364	313	10.5	486.85000610352
95364	328	10.75	486.85000610352
95364	343	11	486.85000610352
95364	358	11.25	486.85000610352
95364	373	11.5	486.85000610352
95364	388	11.75	486.85000610352
95364	403	12	486.85000610352
95364	418	12.25	486.85000610352
95364	433	12.5	486.85000610352
95364	448	12.75	486.85000610352
95364	463	13	486.85000610352
95364	478	13.25	486.85000610352
95364	493	13.5	486.85000610352
95364	510	13.75	486.85000610352
95364	529	14	486.85000610352
95364	548	14.25	486.85000610352
95364	569	14.5	486.85000610352
95364	590	14.75	486.85000610352
95364	611	15	486.85000610352
95364	632	15.25	486.85000610352
95364	653	15.5	486.85000610352
95364	674	15.75	486.85000610352
95364	695	16	486.85000610352
95364	716	16.25	486.85000610352
95364	737	16.5	486.85000610352
95364	758	16.75	486.85000610352
95364	779	17	486.85000610352
95364	800	17.25	486.85000610352
95364	821	17.5	486.85000610352
95364	842	17.75	486.85000610352
95364	863	18	486.85000610352
95364	884	18.25	486.85000610352
95364	905	18.5	486.85000610352
95364	926	18.75	486.85000610352
95364	947	19	486.85000610352
95364	968	19.25	486.85000610352
95364	989	19.5	486.85000610352
95364	1010	19.75	486.85000610352
95364	1031	20	486.85000610352
95364	1052	20.25	486.85000610352
95364	1073	20.5	486.85000610352
95364	1094	20.75	486.85000610352
95364	1117	21	486.85000610352
95364	1140	21.25	486.85000610352
95364	1163	21.5	486.85000610352
95364	1186	21.75	486.85000610352
95364	1209	22	486.85000610352
95364	1232	22.25	486.85000610352
95364	1255	22.5	486.92556762695
95364	1278	22.75	487.18469238281
95364	1301	23	487.65341186523
95364	1324	23.25	488.31771850586
95364	1347	23.5	489.15908813477
95364	1370	23.75	490.15139770508
95364	1393	24	491.31088256836
95364	1416	24.25	492.72225952148
95364	1439	24.5	494.40032958984
95364	1462	24.75	496.15023803711
95364	1484	25	497.88726806641
95364	1505	25.25	499.66851806641
95364	1526	25.5	501.54351806641
95364	1549	25.75	503.55914306641
95364	1572	26	505.73101806641
95364	1595	26.25	508.05914306641
95364	1618	26.5	510.54351806641
95364	1641	26.75	513.18414306641
95364	1666	27	515.98101806641
95364	1693	27.25	518.93414306641
95364	1720	27.5	522.04351806641
95364	1747	27.75	525.30914306641
95364	1774	28	528.73101806641
95364	1800	28.25	532.30914306641
95364	1825	28.5	536.12164306641
95364	1850	28.75	539.93322753906
95364	1875	29	543.74411010742
95364	1900	29.25	547.55450439453
95364	1925	29.5	551.36468505859
95364	1950	29.75	555.1745300293
95364	1974	30	558.98413085938
95364	1999	30.25	562.79354858398
95364	2024	30.5	566.6028137207
95364	2049	30.75	570.41195678711
95364	2074	31	574.22103881836
95364	2099	31.25	578.03005981445
95364	2126	31.5	581.83901977539
95364	2153	31.75	585.64794921875
95364	2182	32	589.45684814453
95364	2213	32.25	593.26574707031
95364	2244	32.5	597.07461547852
95364	2275	32.75	600.88348388672
95364	2306	33	604.69235229492
95364	2336	33.25	608.50119018555
95364	2365	33.5	612.31002807617
95364	2394	33.75	616.11888122559
95364	2423	34	619.927734375
95364	2452	34.25	623.73657226562
95364	2481	34.5	627.54541015625
95364	2510	34.75	631.35424804688
95364	2539	35	635.1630859375
95364	2570	35.25	638.97192382812
95364	2601	35.5	642.78076171875
95364	2631	35.75	646.58959960938
95364	2660	36	650.3984375
95364	2689	36.25	654.20727539062
95364	2718	36.5	658.01611328125
95364	2747	36.75	661.82495117188
95364	2776	37	665.6337890625
95364	2805	37.25	669.44261169434
95364	2834	37.5	673.25144958496
95364	2865	37.75	677.06028747559
95364	2896	38	680.86912536621
95364	2927	38.25	684.67794799805
95364	2958	38.5	688.48678588867
95364	2989	38.75	692.2956237793
95364	3020	39	696.10446166992
95364	3051	39.25	699.91329956055
95364	3082	39.5	703.72212219238
95364	3115	39.75	707.53096008301
95364	3150	40	711.33979797363
95364	3185	40.25	715.14863586426
95364	3220	40.5	718.95747375488
95364	3255	40.75	722.76631164551
95364	3290	41	726.57514953613
95364	3325	41.25	730.38398742676
95364	3362	41.5	734.19282531738
95363	12	1.25	785.82187652588
95363	17	1.5	785.82187652588
95363	22	1.75	784.48750305176
95363	27	2	782.99687957764
95363	32	2.25	781.35000610352
95363	37	2.5	779.54688262939
95363	42	2.75	777.58750915527
95363	47	3	775.47188568115
95363	52	3.25	773.20001220703
95363	57	3.5	770.77188873291
95363	62	3.75	768.18751525879
95363	67	4	765.44688415527
95363	72	4.25	762.55001068115
95363	77	4.5	759.49688720703
95363	82	4.75	756.28750610352
95363	87	5	752.92188262939
95363	92	5.25	749.40000915527
95363	97	5.5	745.72188568115
95363	102	5.75	741.88751220703
95363	109	6	738.00093078613
95363	116	6.25	734.1337890625
95363	123	6.5	730.28121948242
95363	130	6.75	726.43411254883
95363	137	7	722.59658813477
95363	146	7.25	718.76622009277
95363	155	7.5	714.94125366211
95363	164	7.75	711.12030029297
95363	173	8	707.30238342285
95363	186	8.25	703.4867401123
95363	199	8.5	699.67279052734
95363	212	8.75	695.86013793945
95363	225	9	692.04843139648
95363	238	9.25	688.23742675781
95363	253	9.5	684.42698669434
95363	268	9.75	680.61694335938
95363	283	10	676.8072052002
95363	298	10.25	672.99768066406
95363	313	10.5	669.18832397461
95363	328	10.75	665.37910461426
95363	343	11	661.56999206543
95363	358	11.25	657.76094055176
95363	373	11.5	653.95193481445
95363	388	11.75	650.14297485352
95363	403	12	646.33406066895
95363	418	12.25	642.52514648438
95363	433	12.5	638.71626281738
95363	448	12.75	634.90739440918
95363	463	13	631.09852600098
95363	478	13.25	627.28967285156
95363	493	13.5	623.48081970215
95363	510	13.75	619.67196655273
95363	529	14	615.86312866211
95363	548	14.25	612.05429077148
95363	569	14.5	608.24545288086
95363	590	14.75	604.43661499023
95363	611	15	600.62777709961
95363	632	15.25	596.81893920898
95363	653	15.5	593.01010131836
95363	674	15.75	589.20126342773
95363	695	16	585.39242553711
95363	716	16.25	581.58358764648
95363	737	16.5	577.77474975586
95363	758	16.75	573.96591186523
95363	779	17	570.15707397461
95363	800	17.25	566.34823608398
95363	821	17.5	562.53939819336
95363	842	17.75	558.73059082031
95363	863	18	554.92175292969
95363	884	18.25	551.11291503906
95363	905	18.5	547.30407714844
95363	926	18.75	543.49523925781
95363	947	19	539.68640136719
95363	968	19.25	535.87756347656
95363	989	19.5	532.06872558594
95363	1010	19.75	528.25988769531
95363	1031	20	524.53939819336
95363	1052	20.25	520.99673461914
95363	1073	20.5	517.63424682617
95363	1094	20.75	514.45462036133
95363	1117	21	511.46072387695
95363	1140	21.25	508.65591430664
95363	1163	21.5	506.04403686523
95363	1186	21.75	503.62979125977
95363	1209	22	501.41909790039
95363	1232	22.25	499.42053222656
95363	1255	22.5	497.6721496582
95363	1278	22.75	495.94143676758
95363	1301	23	494.25537109375
95363	1324	23.25	492.63635253906
95363	1347	23.5	491.10189819336
95363	1370	23.75	489.6604309082
95363	1393	24	488.34967041016
95363	1416	24.25	487.31500244141
95363	1439	24.5	486.81842041016
95363	1462	24.75	486.83532714844
95363	1484	25	486.85000610352
95363	1505	25.25	486.85000610352
95363	1526	25.5	486.85000610352
95363	1549	25.75	486.85000610352
95363	1572	26	486.85000610352
95363	1595	26.25	486.85000610352
95363	1618	26.5	486.85000610352
95363	1641	26.75	486.85000610352
95363	1666	27	486.85000610352
95363	1693	27.25	486.85000610352
95363	1720	27.5	486.85000610352
95363	1747	27.75	486.85000610352
95363	1774	28	486.85000610352
95363	1800	28.25	486.85000610352
95363	1825	28.5	486.85000610352
95363	1850	28.75	486.85000610352
95363	1875	29	486.85000610352
95363	1900	29.25	486.85000610352
95363	1925	29.5	486.85000610352
95363	1950	29.75	486.85000610352
95363	1974	30	486.85000610352
95363	1999	30.25	486.85000610352
95363	2024	30.5	486.85000610352
95363	2049	30.75	486.85000610352
95363	2074	31	486.85000610352
95363	2099	31.25	486.85000610352
95363	2126	31.5	486.85000610352
95363	2153	31.75	486.85000610352
95363	2182	32	486.85000610352
95363	2213	32.25	486.85000610352
95363	2244	32.5	486.85000610352
95363	2275	32.75	486.85000610352
95363	2306	33	486.85000610352
95363	2336	33.25	486.85000610352
95363	2365	33.5	486.85000610352
95363	2394	33.75	486.85000610352
95363	2423	34	486.85000610352
95363	2452	34.25	486.85000610352
95363	2481	34.5	486.85000610352
95363	2510	34.75	486.85000610352
95363	2539	35	486.85000610352
95363	2570	35.25	486.85000610352
95363	2601	35.5	486.85000610352
95363	2631	35.75	486.85000610352
95363	2660	36	486.85000610352
95363	2689	36.25	486.85000610352
95363	2718	36.5	486.85000610352
95363	2747	36.75	486.85000610352
95363	2776	37	486.85000610352
95363	2805	37.25	486.85000610352
95363	2834	37.5	486.85000610352
95363	2865	37.75	486.85000610352
95363	2896	38	486.85000610352
95363	2927	38.25	486.85000610352
95363	2958	38.5	486.85000610352
95363	2989	38.75	486.85000610352
95363	3020	39	486.85000610352
95363	3051	39.25	486.85000610352
95363	3082	39.5	486.85000610352
95363	3115	39.75	486.85000610352
95363	3150	40	486.85000610352
95363	3185	40.25	486.85000610352
95363	3220	40.5	486.85000610352
95363	3255	40.75	486.85000610352
95363	3290	41	486.85000610352
95363	3325	41.25	486.85000610352
95363	3362	41.5	486.85000610352
vector 95513  IntersectionExampleScenario.node[22].veinsmobility  acceleration  ETV
vector 95514  IntersectionExampleScenario.node[22].veinsmobility  co2emission  ETV
vector 95519  IntersectionExampleScenario.node[23].veinsmobility  speed  ETV
vector 95520  IntersectionExampleScenario.node[23].veinsmobility  acceleration  ETV
vector 95521  IntersectionExampleScenario.node[23].veinsmobility  co2emission  ETV
vector 95524  IntersectionExampleScenario.node[24].veinsmobility  posx  ETV
vector 95525  IntersectionExampleScenario.node[24].veinsmobility  posy  ETV
vector 95526  IntersectionExampleScenario.node[24].veinsmobility  speed  ETV
95374	116	6.25	5.2162187258585
95374	123	6.5	5.6304533568076
95374	130	6.75	6.0461819274774
95374	137	7	6.4635356930995
95374	146	7.25	6.8826618500064
95374	155	7.5	7.303684162087
95374	164	7.75	7.726741696285
95374	173	8	8.1519697732254
95374	186	8.25	8.5795037135332
95374	199	8.5	9.0094788378334
95374	212	8.75	9.442030466751
95374	225	9	9.8772939209111
95374	238	9.25	10.315404520939
95374	253	9.5	10.756497587458
95374	268	9.75	11.200708441096
95374	283	10	11.648172402475
95374	298	10.25	12.099024792222
95374	313	10.5	0.973
95374	328	10.75	0.973
95374	343	11	1.0865523992193
95374	358	11.25	1.3755185603379
95374	373	11.5	1.5908986077719
95374	388	11.75	1.7516768376976
95374	403	12	1.8718217917401
95374	418	12.25	1.9616971755861
95374	433	12.5	2.028957420977
95374	448	12.75	2.0793410282499
95374	463	13	2.1170823018295
95374	478	13.25	2.1453495954586
95374	493	13.5	2.1665437357664
95374	510	13.75	2.1824462832271
95374	529	14	2.1943507467366
95374	548	14.25	2.203294865968
95374	569	14.5	2.2099870913614
95374	590	14.75	2.2150091173758
95374	611	15	2.2187715608264
95374	632	15.25	2.2216004180461
95374	653	15.5	2.2237219527566
95374	674	15.75	2.2253057617487
95374	695	16	2.2264935478242
95374	716	16.25	2.2273843354185
95374	737	16.5	2.2280633245134
95374	758	16.75	2.2285580279272
95374	779	17	2.2289399352631
95374	800	17.25	2.2292227446053
95374	821	17.5	2.2294348502498
95374	842	17.75	2.2295902821533
95374	863	18	2.229717767461
95374	884	18.25	2.2298024972678
95374	905	18.5	2.2298733097261
95374	926	18.75	2.2299155072081
95374	947	19	2.229958039181
95374	968	19.25	2.2299863194614
95374	989	19.5	2.2300002365568
95374	1010	19.75	2.2300288513632
95374	1031	20	2.2300285168027
95374	1052	20.25	2.2300427684389
95374	1073	20.5	2.2300571315934
95374	1094	20.75	2.2300570200715
95374	1117	21	2.2300569085497
95374	1140	21.25	2.2300567970278
95374	1163	21.5	2.2300712717008
95374	1186	21.75	2.2300712717008
95374	1209	22	2.2300712717008
95374	1232	22.25	2.2300712717008
95374	1255	22.5	2.2300712717008
95374	1278	22.75	2.2300712717008
95374	1301	23	2.2300712717008
95374	1324	23.25	2.2300712717008
95374	1347	23.5	2.2300712717008
95374	1370	23.75	2.2300712717008
95374	1393	24	2.2300712717008
95374	1416	24.25	0.973
95374	1439	24.5	0.973
95374	1462	24.75	0.973
95374	1484	25	0.973
95374	1505	25.25	0.973
95374	1526	25.5	0.973
95374	1549	25.75	0.973
95374	1572	26	1.76359628928
95374	1595	26.25	1.76359628928
95374	1618	26.5	1.76359628928
95374	1641	26.75	1.76359628928
95374	1666	27	1.76359628928
95374	1693	27.25	1.76359628928
95374	1720	27.5	1.76359628928
95374	1747	27.75	1.76359628928
95374	1774	28	1.76359628928
95374	1800	28.25	4.4954816475
95374	1825	28.5	7.49018019466
95374	1850	28.75	9.3379761228225
95374	1875	29	9.77257639936
95374	1900	29.25	10.209991344897
95374	1925	29.5	10.65035628006
95374	1950	29.75	11.093806525473
95374	1974	30	11.54047740176
95374	1999	30.25	11.990504229548
95374	2024	30.5	0.973
95374	2049	30.75	1.1580209624373
95374	2074	31	1.4287616586736
95374	2099	31.25	1.6306195442549
95374	2126	31.5	1.7813397294725
95374	2153	31.75	1.8940068663385
95374	2182	32	1.9782953499781
95374	2213	32.25	2.041392534577
95374	2244	32.5	2.0886520355475
95374	2275	32.75	2.1240589761607
95374	2306	33	2.1505784000282
95374	2336	33.25	2.1704669052688
95374	2365	33.5	2.1853765716177
95374	2394	33.75	2.1965586931433
95374	2423	34	2.2049358927398
95374	2452	34.25	2.2112175707356
95374	2481	34.5	2.2159427177261
95374	2510	34.75	2.2194789886052
95374	2539	35	2.2221237133747
95374	2570	35.25	2.2241034631346
95374	2601	35.5	2.2256027395269
95374	2631	35.75	2.2267199211479
95374	2660	36	2.2275541394832
95374	2689	36.25	2.2281907032867
95374	2718	36.5	2.2286572352828
95374	2747	36.75	2.229010749252
95374	2776	37	2.2292649428794
95374	2805	37.25	2.2294773827255
95374	2834	37.5	2.2296185627018
95374	2865	37.75	2.2297316846883
95374	2896	38	2.2298165259603
95374	2927	38.25	2.2298874499008
95374	2958	38.5	2.2299297588798
95374	2989	38.75	2.2299724023573
95374	3020	39	2.2299862079438
95374	3051	39.25	2.2300147112403
95374	3082	39.5	2.2300288513632
95374	3115	39.75	2.2300285168027
95374	3150	40	2.2300427684389
95374	3185	40.25	2.2300571315934
95374	3220	40.5	2.2300570200715
95374	3255	40.75	2.2300569085497
95374	3290	41	2.2300567970278
95374	3325	41.25	2.2300712717008
95374	3362	41.5	2.2300712717008
95374	3401	41.75	2.2300712717008
95374	3440	42	2.2300712717008
95374	3479	42.25	2.2300712717008
95374	3518	42.5	2.2300712717008
95374	3557	42.75	2.2300712717008
95374	3596	43	2.2300712717008
95374	3635	43.25	2.2300712717008
95374	3676	43.5	2.2300712717008
95373	116	6.25	2.5
95373	123	6.5	2.5
95373	130	6.75	2.5
95373	137	7	2.4999980926514
95373	146	7.25	2.5
95373	155	7.5	2.5
95373	164	7.75	2.5
95373	173	8	2.5
95373	186	8.25	2.5
95373	199	8.5	2.5
95373	212	8.75	2.5
95373	225	9	2.5
95373	238	9.25	2.5
95373	253	9.5	2.5
95373	268	9.75	2.5
95373	283	10	2.5
95373	298	10.25	2.5
95373	313	10.5	-0.5
95373	328	10.75	-0.40540313720703
95373	343	11	-0.30405044555664
95373	358	11.25	-0.2280387878418
95373	373	11.5	-0.17102813720703
95373	388	11.75	-0.12826919555664
95373	403	12	-0.096202850341797
95373	418	12.25	-0.072151184082031
95373	433	12.5	-0.054115295410156
95373	448	12.75	-0.040584564208984
95373	463	13	-0.030437469482422
95373	478	13.25	-0.022830963134766
95373	493	13.5	-0.017124176025391
95373	510	13.75	-0.012840270996094
95373	529	14	-0.0096321105957031
95373	548	14.25	-0.0072212219238281
95373	569	14.5	-0.0054168701171875
95373	590	14.75	-0.0040626525878906
95373	611	15	-0.0030479431152344
95373	632	15.25	-0.0022850036621094
95373	653	15.5	-0.0017127990722656
95373	674	15.75	-0.0012855529785156
95373	695	16	-0.00096511840820312
95373	716	16.25	-0.00072479248046875
95373	737	16.5	-0.00054168701171875
95373	758	16.75	-0.00040817260742188
95373	779	17	-0.00030517578125
95373	800	17.25	-0.0002288818359375
95373	821	17.5	-0.00017166137695312
95373	842	17.75	-0.00012969970703125
95373	863	18	-9.5367431640625e-005
95373	884	18.25	-7.2479248046875e-005
95373	905	18.5	-5.340576171875e-005
95373	926	18.75	-4.1961669921875e-005
95373	947	19	-3.0517578125e-005
95373	968	19.25	-2.288818359375e-005
95373	989	19.5	-1.9073486328125e-005
95373	1010	19.75	-1.1444091796875e-005
95373	1031	20	-1.1444091796875e-005
95373	1052	20.25	-7.62939453125e-006
95373	1073	20.5	-3.814697265625e-006
95373	1094	20.75	-3.814697265625e-006
95373	1117	21	-3.814697265625e-006
95373	1140	21.25	-3.814697265625e-006
95373	1163	21.5	0
95373	1186	21.75	0
95373	1209	22	0
95373	1232	22.25	0
95373	1255	22.5	0
95373	1278	22.75	0
95373	1301	23	0
95373	1324	23.25	0
95373	1347	23.5	0
95373	1370	23.75	0
95373	1393	24	0
95373	1416	24.25	-2.5750694274902
95373	1439	24.5	-2.6302795410156
95373	1462	24.75	-2.6954727172852
95373	1484	25	-2.7758102416992
95373	1505	25.25	-2.8820304870605
95373	1526	25.5	-3.0432434082031
95373	1549	25.75	-2.3764953613281
95373	1572	26	0
95373	1595	26.25	0
95373	1618	26.5	0
95373	1641	26.75	0
95373	1666	27	0
95373	1693	27.25	0
95373	1720	27.5	0
95373	1747	27.75	0
95373	1774	28	0
95373	1800	28.25	1
95373	1825	28.5	2
95373	1850	28.75	2.5
95373	1875	29	2.5
95373	1900	29.25	2.5
95373	1925	29.5	2.5
95373	1950	29.75	2.5
95373	1974	30	2.5
95373	1999	30.25	2.5
95373	2024	30.5	-0.38040161132812
95373	2049	30.75	-0.28530120849609
95373	2074	31	-0.21397399902344
95373	2099	31.25	-0.16048049926758
95373	2126	31.5	-0.120361328125
95373	2153	31.75	-0.09027099609375
95373	2182	32	-0.067703247070312
95373	2213	32.25	-0.050777435302734
95373	2244	32.5	-0.038082122802734
95373	2275	32.75	-0.028560638427734
95373	2306	33	-0.02142333984375
95373	2336	33.25	-0.016067504882812
95373	2365	33.5	-0.012050628662109
95373	2394	33.75	-0.0090370178222656
95373	2423	34	-0.0067787170410156
95373	2452	34.25	-0.0050849914550781
95373	2481	34.5	-0.0038108825683594
95373	2510	34.75	-0.0028572082519531
95373	2539	35	-0.0021438598632812
95373	2570	35.25	-0.0016098022460938
95373	2601	35.5	-0.0012054443359375
95373	2631	35.75	-0.00090408325195312
95373	2660	36	-0.00067901611328125
95373	2689	36.25	-0.00050735473632812
95373	2718	36.5	-0.0003814697265625
95373	2747	36.75	-0.00028610229492188
95373	2776	37	-0.00021743774414062
95373	2805	37.25	-0.00016021728515625
95373	2834	37.5	-0.0001220703125
95373	2865	37.75	-9.1552734375e-005
95373	2896	38	-6.866455078125e-005
95373	2927	38.25	-4.9591064453125e-005
95373	2958	38.5	-3.814697265625e-005
95373	2989	38.75	-2.6702880859375e-005
95373	3020	39	-2.288818359375e-005
95373	3051	39.25	-1.52587890625e-005
95373	3082	39.5	-1.1444091796875e-005
95373	3115	39.75	-1.1444091796875e-005
95373	3150	40	-7.62939453125e-006
95373	3185	40.25	-3.814697265625e-006
95373	3220	40.5	-3.814697265625e-006
95373	3255	40.75	-3.814697265625e-006
95373	3290	41	-3.814697265625e-006
95373	3325	41.25	0
95373	3362	41.5	0
95373	3401	41.75	0
95373	3440	42	0
95373	3479	42.25	0
95373	3518	42.5	0
95373	3557	42.75	0
95373	3596	43	0
95373	3635	43.25	0
95373	3676	43.5	0
95372	109	6	5.6500000953674
95372	116	6.25	6.2750000953674
95372	123	6.5	6.9000000953674
95372	130	6.75	7.5250000953674
95372	137	7	8.1499996185303
95372	146	7.25	8.7749996185303
95372	155	7.5	9.3999996185303
95372	164	7.75	10.02499961853
95372	173	8	10.64999961853
95372	186	8.25	11.27499961853
95372	199	8.5	11.89999961853
95372	212	8.75	12.52499961853
95372	225	9	13.14999961853
95372	238	9.25	13.77499961853
95372	253	9.5	14.39999961853
95372	268	9.75	15.02499961853
95372	283	10	15.64999961853
95372	298	10.25	16.27499961853
95372	313	10.5	16.14999961853
95372	328	10.75	16.048648834229
95372	343	11	15.972636222839
95372	358	11.25	15.915626525879
95372	373	11.5	15.872869491577
95372	388	11.75	15.840802192688
95372	403	12	15.816751480103
95372	418	12.25	15.798713684082
95372	433	12.5	15.785184860229
95372	448	12.75	15.775038719177
95372	463	13	15.767429351807
95372	478	13.25	15.761721611023
95372	493	13.5	15.757440567017
95372	510	13.75	15.754230499268
95372	529	14	15.751822471619
95372	548	14.25	15.750017166138
95372	569	14.5	15.748662948608
95372	590	14.75	15.747647285461
95372	611	15	15.746885299683
95372	632	15.25	15.746314048767
95372	653	15.5	15.745885848999
95372	674	15.75	15.745564460754
95372	695	16	15.745323181152
95372	716	16.25	15.745141983032
95372	737	16.5	15.745006561279
95372	758	16.75	15.744904518127
95372	779	17	15.744828224182
95372	800	17.25	15.744771003723
95372	821	17.5	15.744728088379
95372	842	17.75	15.744695663452
95372	863	18	15.744671821594
95372	884	18.25	15.744653701782
95372	905	18.5	15.744640350342
95372	926	18.75	15.744629859924
95372	947	19	15.74462223053
95372	968	19.25	15.744616508484
95372	989	19.5	15.744611740112
95372	1010	19.75	15.744608879089
95372	1031	20	15.744606018066
95372	1052	20.25	15.744604110718
95372	1073	20.5	15.744603157043
95372	1094	20.75	15.744602203369
95372	1117	21	15.744601249695
95372	1140	21.25	15.744600296021
95372	1163	21.5	15.744600296021
95372	1186	21.75	15.744600296021
95372	1209	22	15.744600296021
95372	1232	22.25	15.744600296021
95372	1255	22.5	15.744600296021
95372	1278	22.75	15.744600296021
95372	1301	23	15.744600296021
95372	1324	23.25	15.744600296021
95372	1347	23.5	15.744600296021
95372	1370	23.75	15.744600296021
95372	1393	24	15.744600296021
95372	1416	24.25	15.100832939148
95372	1439	24.5	14.443263053894
95372	1462	24.75	13.769394874573
95372	1484	25	13.075442314148
95372	1505	25.25	12.354934692383
95372	1526	25.5	11.594123840332
95372	1549	25.75	11
95372	1572	26	11
95372	1595	26.25	11
95372	1618	26.5	11
95372	1641	26.75	11
95372	1666	27	11
95372	1693	27.25	11
95372	1720	27.5	11
95372	1747	27.75	11
95372	1774	28	11
95372	1800	28.25	11.25
95372	1825	28.5	11.75
95372	1850	28.75	12.375
95372	1875	29	13
95372	1900	29.25	13.625
95372	1925	29.5	14.25
95372	1950	29.75	14.875
95372	1974	30	15.5
95372	1999	30.25	16.125
95372	2024	30.5	16.029899597168
95372	2049	30.75	15.958574295044
95372	2074	31	15.905080795288
95372	2099	31.25	15.864960670471
95372	2126	31.5	15.83487033844
95372	2153	31.75	15.812302589417
95372	2182	32	15.795376777649
95372	2213	32.25	15.782682418823
95372	2244	32.5	15.773161888123
95372	2275	32.75	15.766021728516
95372	2306	33	15.760665893555
95372	2336	33.25	15.756649017334
95372	2365	33.5	15.753636360168
95372	2394	33.75	15.751377105713
95372	2423	34	15.749682426453
95372	2452	34.25	15.748411178589
95372	2481	34.5	15.747458457947
95372	2510	34.75	15.746744155884
95372	2539	35	15.746208190918
95372	2570	35.25	15.745805740356
95372	2601	35.5	15.745504379272
95372	2631	35.75	15.745278358459
95372	2660	36	15.745108604431
95372	2689	36.25	15.744981765747
95372	2718	36.5	15.744886398315
95372	2747	36.75	15.744814872742
95372	2776	37	15.744760513306
95372	2805	37.25	15.744720458984
95372	2834	37.5	15.744689941406
95372	2865	37.75	15.744667053223
95372	2896	38	15.744649887085
95372	2927	38.25	15.744637489319
95372	2958	38.5	15.744627952576
95372	2989	38.75	15.744621276855
95372	3020	39	15.74461555481
95372	3051	39.25	15.744611740112
95372	3082	39.5	15.744608879089
95372	3115	39.75	15.744606018066
95372	3150	40	15.744604110718
95372	3185	40.25	15.744603157043
95372	3220	40.5	15.744602203369
95372	3255	40.75	15.744601249695
95372	3290	41	15.744600296021
95372	3325	41.25	15.744600296021
95372	3362	41.5	15.744600296021
95372	3401	41.75	15.744600296021
95372	3440	42	15.744600296021
95372	3479	42.25	15.744600296021
95372	3518	42.5	15.744600296021
95372	3557	42.75	15.744600296021
95372	3596	43	15.744600296021
95372	3635	43.25	15.744600296021
95372	3676	43.5	15.744600296021
95371	102	5.75	483.14999389648
95371	109	6	483.14999389648
95371	116	6.25	483.14999389648
95371	123	6.5	483.14999389648
95371	130	6.75	483.14999389648
95371	137	7	483.14999389648
95371	146	7.25	483.14999389648
95371	155	7.5	483.14999389648
95371	164	7.75	483.14999389648
95371	173	8	483.14999389648
95371	186	8.25	483.14999389648
95371	199	8.5	483.14999389648
95371	212	8.75	483.14999389648
95371	225	9	483.14999389648
95371	238	9.25	483.14999389648
95371	253	9.5	483.14999389648
95371	268	9.75	483.14999389648
95371	283	10	483.14999389648
95371	298	10.25	483.14999389648
95371	313	10.5	483.14999389648
95371	328	10.75	483.14999389648
95371	343	11	483.14999389648
95371	358	11.25	483.14999389648
95371	373	11.5	483.14999389648
95371	388	11.75	483.14999389648
95371	403	12	483.14999389648
95371	418	12.25	483.14999389648
95371	433	12.5	483.14999389648
95371	448	12.75	483.14999389648
95371	463	13	483.14999389648
95371	478	13.25	483.14999389648
95371	493	13.5	483.14999389648
95371	510	13.75	483.14999389648
95371	529	14	483.14999389648
95371	548	14.25	483.14999389648
95371	569	14.5	483.14999389648
95371	590	14.75	483.14999389648
95371	611	15	483.14999389648
95371	632	15.25	483.14999389648
95371	653	15.5	483.14999389648
95371	674	15.75	483.14999389648
95371	695	16	483.14999389648
95371	716	16.25	483.14999389648
95371	737	16.5	483.14999389648
95371	758	16.75	483.14999389648
95371	779	17	483.14999389648
95371	800	17.25	483.14999389648
95371	821	17.5	483.14999389648
95371	842	17.75	483.14999389648
95371	863	18	483.14999389648
95371	884	18.25	483.14999389648
95371	905	18.5	483.14999389648
95371	926	18.75	483.14999389648
95371	947	19	483.14999389648
95371	968	19.25	483.14999389648
95371	989	19.5	483.14999389648
95371	1010	19.75	483.14999389648
95371	1031	20	483.14999389648
95371	1052	20.25	483.14999389648
95371	1073	20.5	483.14999389648
95371	1094	20.75	483.14999389648
95371	1117	21	483.14999389648
95371	1140	21.25	483.14999389648
95371	1163	21.5	483.14999389648
95371	1186	21.75	483.14999389648
95371	1209	22	483.14999389648
95371	1232	22.25	483.14999389648
95371	1255	22.5	483.14999389648
95371	1278	22.75	483.14999389648
95371	1301	23	483.14999389648
95371	1324	23.25	483.14999389648
95371	1347	23.5	483.14999389648
95371	1370	23.75	483.14999389648
95371	1393	24	483.14999389648
95371	1416	24.25	483.14999389648
95371	1439	24.5	483.14999389648
95371	1462	24.75	483.14999389648
95371	1484	25	483.14999389648
95371	1505	25.25	483.14999389648
95371	1526	25.5	483.14999389648
95371	1549	25.75	483.14999389648
95371	1572	26	483.14999389648
95371	1595	26.25	483.14999389648
95371	1618	26.5	483.14999389648
95371	1641	26.75	483.14999389648
95371	1666	27	483.14999389648
95371	1693	27.25	483.14999389648
95371	1720	27.5	483.14999389648
95371	1747	27.75	483.14999389648
95371	1774	28	483.14999389648
95371	1800	28.25	483.14999389648
95371	1825	28.5	483.14999389648
95371	1850	28.75	483.14999389648
95371	1875	29	483.14999389648
95371	1900	29.25	483.14999389648
95371	1925	29.5	483.14999389648
95371	1950	29.75	483.14999389648
95371	1974	30	483.14999389648
95371	1999	30.25	483.14999389648
95371	2024	30.5	483.14999389648
95371	2049	30.75	483.14999389648
95371	2074	31	483.14999389648
95371	2099	31.25	483.14999389648
95371	2126	31.5	483.14999389648
95371	2153	31.75	483.14999389648
95371	2182	32	483.14999389648
95371	2213	32.25	483.14999389648
95371	2244	32.5	483.14999389648
95371	2275	32.75	483.14999389648
95371	2306	33	483.14999389648
95371	2336	33.25	483.14999389648
95371	2365	33.5	483.14999389648
95371	2394	33.75	483.14999389648
95371	2423	34	483.14999389648
95371	2452	34.25	483.14999389648
95371	2481	34.5	483.14999389648
95371	2510	34.75	483.14999389648
95371	2539	35	483.14999389648
95371	2570	35.25	483.14999389648
95371	2601	35.5	483.14999389648
95371	2631	35.75	483.14999389648
95371	2660	36	483.14999389648
95371	2689	36.25	483.14999389648
95371	2718	36.5	483.14999389648
95371	2747	36.75	483.14999389648
95371	2776	37	483.14999389648
95371	2805	37.25	483.14999389648
95371	2834	37.5	483.14999389648
95371	2865	37.75	483.14999389648
95371	2896	38	483.14999389648
95371	2927	38.25	483.14999389648
95371	2958	38.5	483.14999389648
95371	2989	38.75	483.14999389648
95371	3020	39	483.14999389648
95371	3051	39.25	483.14999389648
95371	3082	39.5	483.14999389648
95371	3115	39.75	483.14999389648
95371	3150	40	483.14999389648
95371	3185	40.25	483.14999389648
95371	3220	40.5	483.14999389648
95371	3255	40.75	483.14999389648
95371	3290	41	483.14999389648
95371	3325	41.25	483.14999389648
95371	3362	41.5	483.14999389648
95371	3401	41.75	483.14999389648
95371	3440	42	483.14999389648
95371	3479	42.25	483.14999389648
95371	3518	42.5	483.14999389648
95371	3557	42.75	483.14999389648
95371	3596	43	483.14999389648
95371	3635	43.25	483.14999389648
95371	3676	43.5	483.14999389648
95370	102	5.75	184.17810058594
95370	109	6	184.17810058594
95370	116	6.25	185.51251220703
95370	123	6.5	187.00311279297
95370	130	6.75	188.65002441406
95370	137	7	190.453125
95370	146	7.25	192.41247558594
95370	155	7.5	194.52813720703
95370	164	7.75	196.79998779297
95370	173	8	199.22808837891
95370	186	8.25	201.8125
95370	199	8.5	204.55310058594
95370	212	8.75	207.45001220703
95370	225	9	210.50311279297
95370	238	9.25	213.71246337891
95370	253	9.5	217.078125
95370	268	9.75	220.59997558594
95370	283	10	224.27813720703
95370	298	10.25	228.11248779297
95370	313	10.5	232.18121337891
95370	328	10.75	236.21868896484
95370	343	11	240.23083496094
95370	358	11.25	244.23352050781
95370	373	11.5	248.21954345703
95370	388	11.75	252.19311523438
95370	403	12	256.15728759766
95370	418	12.25	260.11450195312
95370	433	12.5	264.06640625
95370	448	12.75	268.01440429688
95370	463	13	271.95947265625
95370	478	13.25	275.90228271484
95370	493	13.5	279.84338378906
95370	510	13.75	283.78332519531
95370	529	14	287.72222900391
95370	548	14.25	291.66052246094
95370	569	14.5	295.59826660156
95370	590	14.75	299.53558349609
95370	611	15	303.47259521484
95370	632	15.25	307.40942382812
95370	653	15.5	311.34606933594
95370	674	15.75	315.28259277344
95370	695	16	319.21905517578
95370	716	16.25	323.15539550781
95370	737	16.5	327.09173583984
95370	758	16.75	331.02795410156
95370	779	17	334.96423339844
95370	800	17.25	338.90045166016
95370	821	17.5	342.83660888672
95370	842	17.75	346.77282714844
95370	863	18	350.708984375
95370	884	18.25	354.64514160156
95370	905	18.5	358.5813293457
95370	926	18.75	362.51748657227
95370	947	19	366.45364379883
95370	968	19.25	370.38980102539
95370	989	19.5	374.32595825195
95370	1010	19.75	378.26211547852
95370	1031	20	382.19827270508
95370	1052	20.25	386.13442993164
95370	1073	20.5	390.0705871582
95370	1094	20.75	394.00671386719
95370	1117	21	397.94287109375
95370	1140	21.25	401.87902832031
95370	1163	21.5	405.81518554688
95370	1186	21.75	409.75134277344
95370	1209	22	413.68746948242
95370	1232	22.25	417.62362670898
95370	1255	22.5	421.55978393555
95370	1278	22.75	425.49594116211
95370	1301	23	429.43209838867
95370	1324	23.25	433.36825561523
95370	1347	23.5	437.3044128418
95370	1370	23.75	441.24057006836
95370	1393	24	445.17672729492
95370	1416	24.25	449.11285400391
95370	1439	24.5	452.96853637695
95370	1462	24.75	456.66156005859
95370	1484	25	460.18814086914
95370	1505	25.25	463.54373168945
95370	1526	25.5	466.72253417969
95370	1549	25.75	469.71615600586
95370	1572	26	472.46615600586
95370	1595	26.25	475.21615600586
95370	1618	26.5	477.96615600586
95370	1641	26.75	480.71615600586
95370	1666	27	483.46615600586
95370	1693	27.25	486.21615600586
95370	1720	27.5	488.96615600586
95370	1747	27.75	491.71615600586
95370	1774	28	494.46615600586
95370	1800	28.25	497.21615600586
95370	1825	28.5	499.99740600586
95370	1850	28.75	502.87240600586
95370	1875	29	505.88803100586
95370	1900	29.25	509.05990600586
95370	1925	29.5	512.38803100586
95370	1950	29.75	515.87240600586
95370	1974	30	519.51303100586
95370	1999	30.25	523.30990600586
95370	2024	30.5	527.26303100586
95370	2049	30.75	531.28237915039
95370	2074	31	535.27203369141
95370	2099	31.25	539.24829101562
95370	2126	31.5	543.21453857422
95370	2153	31.75	547.17324829102
95370	2182	32	551.12915039062
95370	2213	32.25	555.08010864258
95370	2244	32.5	559.02737426758
95370	2275	32.75	562.97183227539
95370	2306	33	566.91424560547
95370	2336	33.25	570.85507202148
95370	2365	33.5	574.79473876953
95370	2394	33.75	578.73352050781
95370	2423	34	582.67166137695
95370	2452	34.25	586.60928344727
95370	2481	34.5	590.54638671875
95370	2510	34.75	594.48324584961
95370	2539	35	598.419921875
95370	2570	35.25	602.35647583008
95370	2601	35.5	606.29296875
95370	2631	35.75	610.22940063477
95370	2660	36	614.1657409668
95370	2689	36.25	618.10203552246
95370	2718	36.5	622.03829956055
95370	2747	36.75	625.97453308105
95370	2776	37	629.91073608398
95370	2805	37.25	633.84693908691
95370	2834	37.5	637.78312683105
95370	2865	37.75	641.71929931641
95370	2896	38	645.65547180176
95370	2927	38.25	649.59164428711
95370	2958	38.5	653.52780151367
95370	2989	38.75	657.46395874023
95370	3020	39	661.4001159668
95370	3051	39.25	665.33627319336
95370	3082	39.5	669.27241516113
95370	3115	39.75	673.2085723877
95370	3150	40	677.14472961426
95370	3185	40.25	681.08088684082
95370	3220	40.5	685.01702880859
95370	3255	40.75	688.95318603516
95370	3290	41	692.88932800293
95370	3325	41.25	696.82548522949
95370	3362	41.5	700.76162719727
95370	3401	41.75	704.69778442383
95370	3440	42	708.6339263916
95370	3479	42.25	712.57008361816
95370	3518	42.5	716.50622558594
95370	3557	42.75	720.4423828125
95370	3596	43	724.37852478027
95370	3635	43.25	728.31468200684
95370	3676	43.5	732.2508392334
vector 95527  IntersectionExampleScenario.node[24].veinsmobility  acceleration  ETV
vector 95528  IntersectionExampleScenario.node[24].veinsmobility  co2emission  ETV
vector 95531  IntersectionExampleScenario.node[25].veinsmobility  posx  ETV
vector 95532  IntersectionExampleScenario.node[25].veinsmobility  posy  ETV
vector 95538  IntersectionExampleScenario.node[26].veinsmobility  posx  ETV
vector 95539  IntersectionExampleScenario.node[26].veinsmobility  posy  ETV
vector 95533  IntersectionExampleScenario.node[25].veinsmobility  speed  ETV
95381	155	7.5	5.2162187258585
95381	164	7.75	5.6304533568076
95381	173	8	6.0461819274774
95381	186	8.25	6.4635356930995
95381	199	8.5	6.8826618500064
95381	212	8.75	7.303684162087
95381	225	9	7.726741696285
95381	238	9.25	8.1519697732254
95381	253	9.5	8.5795037135332
95381	268	9.75	9.0094788378334
95381	283	10	9.442030466751
95381	298	10.25	9.8772939209111
95381	313	10.5	10.315404520939
95381	328	10.75	10.756497587458
95381	343	11	11.200708441096
95381	358	11.25	11.648172402475
95381	373	11.5	3.3292937270698
95381	388	11.75	3.3397518409394
95381	403	12	3.349672297453
95381	418	12.25	3.3590565991961
95381	433	12.5	3.3678917915593
95381	448	12.75	3.3761649273418
95381	463	13	3.3838781076745
95381	478	13.25	3.3910037108238
95381	493	13.5	2.237612201704
95381	510	13.75	2.2496198629795
95381	529	14	2.2586232977526
95381	548	14.25	2.2653820846798
95381	569	14.5	2.2704204580249
95381	590	14.75	2.2742362077495
95381	611	15	2.277090392346
95381	632	15.25	2.2792159379213
95381	653	15.5	2.2808174765726
95381	674	15.75	2.2820110795
95381	695	16	2.2829137107885
95381	716	16.25	2.2835831613937
95381	737	16.5	2.2841077135904
95381	758	16.75	2.2844862194406
95381	779	17	2.2847776062331
95381	800	17.25	2.2849811833387
95381	821	17.5	2.2851262980687
95381	842	17.75	2.2852425279621
95381	863	18	2.2853596810973
95381	884	18.25	2.2854176803034
95381	905	18.5	2.2854761412407
95381	926	18.75	2.2855050253073
95381	947	19	2.2855341402671
95381	968	19.25	2.2855634861303
95381	989	19.5	2.2855630242821
95381	1010	19.75	2.2855926010521
95381	1031	20	2.2855923701245
95381	1052	20.25	2.285592139197
95381	1073	20.5	2.2855919082695
95381	1094	20.75	2.285621715953
95381	1117	21	2.2544153990374
95381	1140	21.25	1.803959387593
95381	1163	21.5	1.273335843069
95381	1186	21.75	0.973
95381	1209	22	0.973
95381	1232	22.25	1.4479854159199
95381	1255	22.5	0.973
95381	1278	22.75	4.6502896857527
95381	1301	23	8.6846083836873
95381	1324	23.25	2.0176189245267
95381	1347	23.5	2.0847907652001
95381	1370	23.75	2.1350830219738
95381	1393	24	2.1727618725499
95381	1416	24.25	0.973
95381	1439	24.5	0.973
95381	1462	24.75	0.973
95381	1484	25	0.973
95381	1505	25.25	0.973
95381	1526	25.5	0.973
95381	1549	25.75	0.973
95381	1572	26	0.973
95381	1595	26.25	0.973
95381	1618	26.5	0.973
95381	1641	26.75	0.973
95381	1666	27	0.973
95381	1693	27.25	0.973
95381	1720	27.5	1.47936595584
95381	1747	27.75	1.47936595584
95381	1774	28	1.47936595584
95381	1800	28.25	1.47936595584
95381	1825	28.5	1.47936595584
95381	1850	28.75	1.47936595584
95381	1875	29	1.47936595584
95381	1900	29.25	1.47936595584
95381	1925	29.5	1.47936595584
95381	1950	29.75	1.47936595584
95381	1974	30	3.24219357038
95381	1999	30.25	5.26236092522
95381	2024	30.5	6.6142134161825
95381	2049	30.75	7.03400420352
95381	2074	31	7.4557436078575
95381	2099	31.25	7.87956694982
95381	2126	31.5	8.3056095500325
95381	2153	31.75	8.73400672912
95381	2182	32	9.1648938077075
95381	2213	32.25	9.59840610642
95381	2244	32.5	10.034678945883
95381	2275	32.75	10.47384764672
95381	2306	33	10.916047529558
95381	2336	33.25	11.36141391502
95381	2365	33.5	3.2587207182329
95381	2394	33.75	3.2717317057506
95381	2423	34	3.2841890672006
95381	2452	34.25	3.296077425621
95381	2481	34.5	3.3074104049877
95381	2510	34.75	3.3181440769418
95381	2539	35	3.3282922510266
95381	2570	35.25	3.3378106766836
95381	2601	35.5	3.3466986036643
95381	2631	35.75	3.354940867639
95381	2660	36	3.3625223253952
95381	2689	36.25	3.3694278690544
95381	2718	36.5	3.3756725587333
95381	2747	36.75	3.3812118983418
95381	2776	37	2.1208200223497
95381	2805	37.25	2.1621048939571
95381	2834	37.5	2.1930190015307
95381	2865	37.75	2.2161817987239
95381	2896	38	2.233560278741
95381	2927	38.25	2.2465593133655
95381	2958	38.5	2.2563507729789
95381	2989	38.75	2.2636629623352
95381	3020	39	2.2691687201494
95381	3051	39.25	2.2732751373528
95381	3082	39.5	2.276362131687
95381	3115	39.75	2.2786622042964
95381	3150	40	2.2804095878225
95381	3185	40.25	2.2817201343374
95381	3220	40.5	2.282680545004
95381	3255	40.75	2.2834382714795
95381	3290	41	2.2839616720103
95381	3325	41.25	2.2843690641225
95381	3362	41.5	2.284689567187
95381	3401	41.75	2.2849224909048
95381	3440	42	2.2850971828218
95381	3479	42.25	2.285243220622
95381	3518	42.5	2.2853303351127
95381	3557	42.75	2.2854181421176
95381	3596	43	2.285446564415
95381	3635	43.25	2.2855052562246
95381	3676	43.5	2.2855343711879
95381	3717	43.75	2.2855336784258
95381	3758	44	2.2855630242821
95381	3798	44.25	2.2855926010521
95381	3837	44.5	2.2855923701245
95381	3876	44.75	2.285592139197
95381	3915	45	2.2855919082695
95381	3954	45.25	2.285621715953
95381	3993	45.5	2.285621715953
95381	4033	45.75	2.285621715953
95380	155	7.5	2.5
95380	164	7.75	2.5
95380	173	8	2.5
95380	186	8.25	2.4999980926514
95380	199	8.5	2.5
95380	212	8.75	2.5
95380	225	9	2.5
95380	238	9.25	2.5
95380	253	9.5	2.5
95380	268	9.75	2.5
95380	283	10	2.5
95380	298	10.25	2.5
95380	313	10.5	2.5
95380	328	10.75	2.5
95380	343	11	2.5
95380	358	11.25	2.5
95380	373	11.5	0.290771484375
95380	388	11.75	0.28995513916016
95380	403	12	0.28900527954102
95380	418	12.25	0.28792572021484
95380	433	12.5	0.28671646118164
95380	448	12.75	0.28537750244141
95380	463	13	0.28391265869141
95380	478	13.25	0.28231811523438
95380	493	13.5	-0.0125732421875
95380	510	13.75	-0.009429931640625
95380	529	14	-0.0070724487304688
95380	548	14.25	-0.0053024291992188
95380	569	14.5	-0.0039825439453125
95380	590	14.75	-0.0029830932617188
95380	611	15	-0.0022354125976562
95380	632	15.25	-0.001678466796875
95380	653	15.5	-0.0012588500976562
95380	674	15.75	-0.000946044921875
95380	695	16	-0.00070953369140625
95380	716	16.25	-0.0005340576171875
95380	737	16.5	-0.000396728515625
95380	758	16.75	-0.00029754638671875
95380	779	17	-0.00022125244140625
95380	800	17.25	-0.0001678466796875
95380	821	17.5	-0.00012969970703125
95380	842	17.75	-9.918212890625e-005
95380	863	18	-6.866455078125e-005
95380	884	18.25	-5.340576171875e-005
95380	905	18.5	-3.814697265625e-005
95380	926	18.75	-3.0517578125e-005
95380	947	19	-2.288818359375e-005
95380	968	19.25	-1.52587890625e-005
95380	989	19.5	-1.52587890625e-005
95380	1010	19.75	-7.62939453125e-006
95380	1031	20	-7.62939453125e-006
95380	1052	20.25	-7.62939453125e-006
95380	1073	20.5	-7.62939453125e-006
95380	1094	20.75	0
95380	1117	21	-0.0079269409179688
95380	1140	21.25	-0.12252044677734
95380	1163	21.5	-0.25764465332031
95380	1186	21.75	-0.41466522216797
95380	1209	22	-0.59590530395508
95380	1232	22.25	-0.20727157592773
95380	1255	22.5	-0.37136077880859
95380	1278	22.75	0.62863922119141
95380	1301	23	1.6286392211914
95380	1324	23.25	-0.069999694824219
95380	1347	23.5	-0.052497863769531
95380	1370	23.75	-0.039375305175781
95380	1393	24	-0.029533386230469
95380	1416	24.25	-2.0295333862305
95380	1439	24.5	-2.6939392089844
95380	1462	24.75	-2.727668762207
95380	1484	25	-2.7641983032227
95380	1505	25.25	-2.804126739502
95380	1526	25.5	-2.8482551574707
95380	1549	25.75	-2.8977394104004
95380	1572	26	-2.9543228149414
95380	1595	26.25	-3.0208015441895
95380	1618	26.5	-3.1021766662598
95380	1641	26.75	-3.2087593078613
95380	1666	27	-3.3681888580322
95380	1693	27.25	-2.514554977417
95380	1720	27.5	0
95380	1747	27.75	0
95380	1774	28	0
95380	1800	28.25	0
95380	1825	28.5	0
95380	1850	28.75	0
95380	1875	29	0
95380	1900	29.25	0
95380	1925	29.5	0
95380	1950	29.75	0
95380	1974	30	1
95380	1999	30.25	2
95380	2024	30.5	2.5
95380	2049	30.75	2.5
95380	2074	31	2.5
95380	2099	31.25	2.5
95380	2126	31.5	2.5
95380	2153	31.75	2.5
95380	2182	32	2.5
95380	2213	32.25	2.5
95380	2244	32.5	2.5
95380	2275	32.75	2.5
95380	2306	33	2.5
95380	2336	33.25	2.5
95380	2365	33.5	0.29169845581055
95380	2394	33.75	0.29159164428711
95380	2423	34	0.29132843017578
95380	2452	34.25	0.29090881347656
95380	2481	34.5	0.29034042358398
95380	2510	34.75	0.28961563110352
95380	2539	35	0.28874206542969
95380	2570	35.25	0.28771209716797
95380	2601	35.5	0.28652954101562
95380	2631	35.75	0.28519439697266
95380	2660	36	0.28370666503906
95380	2689	36.25	0.28206634521484
95380	2718	36.5	0.28028106689453
95380	2747	36.75	0.27834320068359
95380	2776	37	-0.043098449707031
95380	2805	37.25	-0.032318115234375
95380	2834	37.5	-0.024238586425781
95380	2865	37.75	-0.018180847167969
95380	2896	38	-0.013633728027344
95380	2927	38.25	-0.010231018066406
95380	2958	38.5	-0.0076675415039062
95380	2989	38.75	-0.0057525634765625
95380	3020	39	-0.0043106079101562
95380	3051	39.25	-0.00323486328125
95380	3082	39.5	-0.0024261474609375
95380	3115	39.75	-0.0018234252929688
95380	3150	40	-0.0013656616210938
95380	3185	40.25	-0.0010223388671875
95380	3220	40.5	-0.00077056884765625
95380	3255	40.75	-0.00057220458984375
95380	3290	41	-0.00043487548828125
95380	3325	41.25	-0.00032806396484375
95380	3362	41.5	-0.000244140625
95380	3401	41.75	-0.00018310546875
95380	3440	42	-0.0001373291015625
95380	3479	42.25	-9.918212890625e-005
95380	3518	42.5	-7.62939453125e-005
95380	3557	42.75	-5.340576171875e-005
95380	3596	43	-4.57763671875e-005
95380	3635	43.25	-3.0517578125e-005
95380	3676	43.5	-2.288818359375e-005
95380	3717	43.75	-2.288818359375e-005
95380	3758	44	-1.52587890625e-005
95380	3798	44.25	-7.62939453125e-006
95380	3837	44.5	-7.62939453125e-006
95380	3876	44.75	-7.62939453125e-006
95380	3915	45	-7.62939453125e-006
95380	3954	45.25	0
95380	3993	45.5	0
95380	4033	45.75	0
95379	146	7.25	5.6500000953674
95379	155	7.5	6.2750000953674
95379	164	7.75	6.9000000953674
95379	173	8	7.5250000953674
95379	186	8.25	8.1499996185303
95379	199	8.5	8.7749996185303
95379	212	8.75	9.3999996185303
95379	225	9	10.02499961853
95379	238	9.25	10.64999961853
95379	253	9.5	11.27499961853
95379	268	9.75	11.89999961853
95379	283	10	12.52499961853
95379	298	10.25	13.14999961853
95379	313	10.5	13.77499961853
95379	328	10.75	14.39999961853
95379	343	11	15.02499961853
95379	358	11.25	15.64999961853
95379	373	11.5	15.722692489624
95379	388	11.75	15.795181274414
95379	403	12	15.867432594299
95379	418	12.25	15.939414024353
95379	433	12.5	16.011093139648
95379	448	12.75	16.082437515259
95379	463	13	16.153415679932
95379	478	13.25	16.22399520874
95379	493	13.5	16.220851898193
95379	510	13.75	16.218494415283
95379	529	14	16.216726303101
95379	548	14.25	16.215400695801
95379	569	14.5	16.214405059814
95379	590	14.75	16.213659286499
95379	611	15	16.21310043335
95379	632	15.25	16.21268081665
95379	653	15.5	16.212366104126
95379	674	15.75	16.212129592896
95379	695	16	16.211952209473
95379	716	16.25	16.211818695068
95379	737	16.5	16.211719512939
95379	758	16.75	16.211645126343
95379	779	17	16.211589813232
95379	800	17.25	16.211547851562
95379	821	17.5	16.211515426636
95379	842	17.75	16.211490631104
95379	863	18	16.211473464966
95379	884	18.25	16.211460113525
95379	905	18.5	16.211450576782
95379	926	18.75	16.211442947388
95379	947	19	16.211437225342
95379	968	19.25	16.211433410645
95379	989	19.5	16.211429595947
95379	1010	19.75	16.211427688599
95379	1031	20	16.21142578125
95379	1052	20.25	16.211423873901
95379	1073	20.5	16.211421966553
95379	1094	20.75	16.211421966553
95379	1117	21	16.209440231323
95379	1140	21.25	16.178810119629
95379	1163	21.5	16.114398956299
95379	1186	21.75	16.010732650757
95379	1209	22	15.861756324768
95379	1232	22.25	15.809938430786
95379	1255	22.5	15.717098236084
95379	1278	22.75	15.874258041382
95379	1301	23	16.28141784668
95379	1324	23.25	16.263917922974
95379	1347	23.5	16.250793457031
95379	1370	23.75	16.240949630737
95379	1393	24	16.23356628418
95379	1416	24.25	15.726182937622
95379	1439	24.5	15.052698135376
95379	1462	24.75	14.370780944824
95379	1484	25	13.679731369019
95379	1505	25.25	12.978699684143
95379	1526	25.5	12.266635894775
95379	1549	25.75	11.542201042175
95379	1572	26	10.80362033844
95379	1595	26.25	10.048419952393
95379	1618	26.5	9.2728757858276
95379	1641	26.75	8.4706859588623
95379	1666	27	7.6286387443542
95379	1693	27.25	7
95379	1720	27.5	7
95379	1747	27.75	7
95379	1774	28	7
95379	1800	28.25	7
95379	1825	28.5	7
95379	1850	28.75	7
95379	1875	29	7
95379	1900	29.25	7
95379	1925	29.5	7
95379	1950	29.75	7
95379	1974	30	7.25
95379	1999	30.25	7.75
95379	2024	30.5	8.375
95379	2049	30.75	9
95379	2074	31	9.625
95379	2099	31.25	10.25
95379	2126	31.5	10.875
95379	2153	31.75	11.5
95379	2182	32	12.125
95379	2213	32.25	12.75
95379	2244	32.5	13.375
95379	2275	32.75	14
95379	2306	33	14.625
95379	2336	33.25	15.25
95379	2365	33.5	15.322924613953
95379	2394	33.75	15.395822525024
95379	2423	34	15.468654632568
95379	2452	34.25	15.541381835938
95379	2481	34.5	15.613966941833
95379	2510	34.75	15.686370849609
95379	2539	35	15.758556365967
95379	2570	35.25	15.830484390259
95379	2601	35.5	15.902116775513
95379	2631	35.75	15.973415374756
95379	2660	36	16.044342041016
95379	2689	36.25	16.114858627319
95379	2718	36.5	16.184928894043
95379	2747	36.75	16.254514694214
95379	2776	37	16.243740081787
95379	2805	37.25	16.235660552979
95379	2834	37.5	16.229600906372
95379	2865	37.75	16.22505569458
95379	2896	38	16.221647262573
95379	2927	38.25	16.219089508057
95379	2958	38.5	16.217172622681
95379	2989	38.75	16.215734481812
95379	3020	39	16.214656829834
95379	3051	39.25	16.213848114014
95379	3082	39.5	16.213241577148
95379	3115	39.75	16.212785720825
95379	3150	40	16.21244430542
95379	3185	40.25	16.212188720703
95379	3220	40.5	16.211996078491
95379	3255	40.75	16.211853027344
95379	3290	41	16.211744308472
95379	3325	41.25	16.21166229248
95379	3362	41.5	16.211601257324
95379	3401	41.75	16.211555480957
95379	3440	42	16.211521148682
95379	3479	42.25	16.211496353149
95379	3518	42.5	16.211477279663
95379	3557	42.75	16.211463928223
95379	3596	43	16.211452484131
95379	3635	43.25	16.211444854736
95379	3676	43.5	16.21143913269
95379	3717	43.75	16.211433410645
95379	3758	44	16.211429595947
95379	3798	44.25	16.211427688599
95379	3837	44.5	16.21142578125
95379	3876	44.75	16.211423873901
95379	3915	45	16.211421966553
95379	3954	45.25	16.211421966553
95379	3993	45.5	16.211421966553
95379	4033	45.75	16.211421966553
95378	137	7	486.85000610352
95378	146	7.25	486.85000610352
95378	155	7.5	486.85000610352
95378	164	7.75	486.85000610352
95378	173	8	486.85000610352
95378	186	8.25	486.85000610352
95378	199	8.5	486.85000610352
95378	212	8.75	486.85000610352
95378	225	9	486.85000610352
95378	238	9.25	486.85000610352
95378	253	9.5	486.85000610352
95378	268	9.75	486.85000610352
95378	283	10	486.85000610352
95378	298	10.25	486.85000610352
95378	313	10.5	486.85000610352
95378	328	10.75	486.85000610352
95378	343	11	486.85000610352
95378	358	11.25	486.85000610352
95378	373	11.5	486.85000610352
95378	388	11.75	486.85000610352
95378	403	12	486.85000610352
95378	418	12.25	486.85000610352
95378	433	12.5	486.85000610352
95378	448	12.75	486.85000610352
95378	463	13	486.85000610352
95378	478	13.25	486.85000610352
95378	493	13.5	486.85000610352
95378	510	13.75	486.85000610352
95378	529	14	486.85000610352
95378	548	14.25	486.85000610352
95378	569	14.5	486.85000610352
95378	590	14.75	486.85000610352
95378	611	15	486.85000610352
95378	632	15.25	486.85000610352
95378	653	15.5	486.85000610352
95378	674	15.75	486.85000610352
95378	695	16	486.85000610352
95378	716	16.25	486.85000610352
95378	737	16.5	486.85000610352
95378	758	16.75	486.85000610352
95378	779	17	486.85000610352
95378	800	17.25	486.85000610352
95378	821	17.5	486.85000610352
95378	842	17.75	486.85000610352
95378	863	18	486.85000610352
95378	884	18.25	486.85000610352
95378	905	18.5	486.85000610352
95378	926	18.75	486.85000610352
95378	947	19	486.85000610352
95378	968	19.25	486.85000610352
95378	989	19.5	486.85000610352
95378	1010	19.75	486.85000610352
95378	1031	20	486.85000610352
95378	1052	20.25	486.85000610352
95378	1073	20.5	486.85000610352
95378	1094	20.75	486.85000610352
95378	1117	21	486.85000610352
95378	1140	21.25	486.85000610352
95378	1163	21.5	486.85000610352
95378	1186	21.75	486.85000610352
95378	1209	22	486.85000610352
95378	1232	22.25	486.85000610352
95378	1255	22.5	486.85000610352
95378	1278	22.75	486.85000610352
95378	1301	23	486.85000610352
95378	1324	23.25	486.85000610352
95378	1347	23.5	486.85000610352
95378	1370	23.75	486.85000610352
95378	1393	24	486.85000610352
95378	1416	24.25	486.85000610352
95378	1439	24.5	486.85000610352
95378	1462	24.75	486.85000610352
95378	1484	25	486.85000610352
95378	1505	25.25	486.85000610352
95378	1526	25.5	486.85000610352
95378	1549	25.75	486.85000610352
95378	1572	26	486.85000610352
95378	1595	26.25	486.85000610352
95378	1618	26.5	486.85000610352
95378	1641	26.75	486.85000610352
95378	1666	27	486.85000610352
95378	1693	27.25	486.85000610352
95378	1720	27.5	486.92556762695
95378	1747	27.75	487.18127441406
95378	1774	28	487.64022827148
95378	1800	28.25	488.28958129883
95378	1825	28.5	489.11224365234
95378	1850	28.75	490.08416748047
95378	1875	29	491.22381591797
95378	1900	29.25	492.61865234375
95378	1925	29.5	494.28826904297
95378	1950	29.75	496.03826904297
95378	1974	30	497.77340698242
95378	1999	30.25	499.55465698242
95378	2024	30.5	501.42965698242
95378	2049	30.75	503.44528198242
95378	2074	31	505.61715698242
95378	2099	31.25	507.94528198242
95378	2126	31.5	510.42965698242
95378	2153	31.75	513.07028198242
95378	2182	32	515.86715698242
95378	2213	32.25	518.82028198242
95378	2244	32.5	521.92965698242
95378	2275	32.75	525.19528198242
95378	2306	33	528.61715698242
95378	2336	33.25	532.19528198242
95378	2365	33.5	536.00778198242
95378	2394	33.75	539.83850097656
95378	2423	34	543.68746948242
95378	2452	34.25	547.55462646484
95378	2481	34.5	551.43087768555
95378	2510	34.75	555.32531738281
95378	2539	35	559.23785400391
95378	2570	35.25	563.16845703125
95378	2601	35.5	567.11709594727
95378	2631	35.75	571.08367919922
95378	2660	36	575.06811523438
95378	2689	36.25	579.07034301758
95378	2718	36.5	583.09024047852
95378	2747	36.75	587.12771606445
95378	2776	37	591.19134521484
95378	2805	37.25	595.25228881836
95378	2834	37.5	599.31121826172
95378	2865	37.75	603.36938476562
95378	2896	38	607.42620849609
95378	2927	38.25	611.48205566406
95378	2958	38.5	615.53713989258
95378	2989	38.75	619.59167480469
95378	3020	39	623.64579772949
95378	3051	39.25	627.69958496094
95378	3082	39.5	631.75315856934
95378	3115	39.75	635.80653381348
95378	3150	40	639.8597869873
95378	3185	40.25	643.91293334961
95378	3220	40.5	647.96601867676
95378	3255	40.75	652.01904296875
95378	3290	41	656.07202148438
95378	3325	41.25	660.12496948242
95378	3362	41.5	664.17790222168
95378	3401	41.75	668.23080444336
95378	3440	42	672.28369140625
95378	3479	42.25	676.33657836914
95378	3518	42.5	680.38945007324
95378	3557	42.75	684.44232177734
95378	3596	43	688.49519348145
95378	3635	43.25	692.54806518555
95378	3676	43.5	696.60092163086
95378	3717	43.75	700.65377807617
95378	3758	44	704.70664978027
95378	3798	44.25	708.75950622559
95378	3837	44.5	712.8123626709
95378	3876	44.75	716.86521911621
95378	3915	45	720.91807556152
95378	3954	45.25	724.97093200684
95378	3993	45.5	729.02378845215
95378	4033	45.75	733.07664489746
95377	137	7	785.82187652588
95377	146	7.25	785.82187652588
95377	155	7.5	784.48750305176
95377	164	7.75	782.99687957764
95377	173	8	781.35000610352
95377	186	8.25	779.54688262939
95377	199	8.5	777.58750915527
95377	212	8.75	775.47188568115
95377	225	9	773.20001220703
95377	238	9.25	770.77188873291
95377	253	9.5	768.18751525879
95377	268	9.75	765.44688415527
95377	283	10	762.55001068115
95377	298	10.25	759.49688720703
95377	313	10.5	756.28750610352
95377	328	10.75	752.92188262939
95377	343	11	749.40000915527
95377	358	11.25	745.72188568115
95377	373	11.5	741.88751220703
95377	388	11.75	737.95683288574
95377	403	12	734.00804138184
95377	418	12.25	730.04118347168
95377	433	12.5	726.06533813477
95377	448	12.75	722.07151794434
95377	463	13	718.05982971191
95377	478	13.25	714.03034973145
95377	493	13.5	709.98316955566
95377	510	13.75	705.92756652832
95377	529	14	701.87265014648
95377	548	14.25	697.81825256348
95377	569	14.5	693.76422119141
95377	590	14.75	689.71049499512
95377	611	15	685.65699768066
95377	632	15.25	681.6036529541
95377	653	15.5	677.55043029785
95377	674	15.75	673.49729919434
95377	695	16	669.44422912598
95377	716	16.25	665.39122009277
[...]
96017	26802	221.25	-0.0015144348144531
96018	25530	212	5.2162187258585
96018	25561	212.25	5.6304533568076
96018	25594	212.5	6.0461819274774
96018	25627	212.75	6.4635356930995
96018	25660	213	0.973
96018	25695	213.25	1.4809126385208
96018	25730	213.5	0.973
96018	25765	213.75	1.2365649923379
96018	25800	214	1.5758016832545
96018	25837	214.25	1.8041632566672
96018	25874	214.5	1.9022223455675
96018	25910	214.75	3.3714932015962
96018	25945	215	3.9804307446468
96018	25980	215.25	4.681198680598
96018	26015	215.5	5.324894247201
96018	26050	215.75	5.9266316627996
96018	26085	216	6.496161869563
96018	26120	216.25	7.0402915382813
96018	26155	216.5	7.5641346302509
96018	26190	216.75	8.0717474257457
96018	26225	217	8.5664703538523
96018	26259	217.25	9.0511138178855
96018	26292	217.5	9.5280697594367
96018	26327	217.75	10.019546999227
96018	26362	218	8.8315070764662
96018	26397	218.25	7.3271744031133
96018	26432	218.5	6.1401038572796
96018	26467	218.75	2.0177229935942
96018	26502	219	2.0410208635552
96018	26537	219.25	2.0584769062213
96018	26571	219.5	2.0715663656128
96018	26604	219.75	2.0813767112033
96018	26637	220	2.0887291612144
96018	26670	220.25	2.0942593946701
96018	26703	220.5	2.0983895444761
96018	26736	220.75	2.1015037754249
96018	26769	221	2.1038257332745
96018	26802	221.25	2.1055670702201
96021	25561	212.25	161.1796875
96021	25594	212.5	161.1796875
96021	25627	212.75	162.51403808594
96021	25660	213	164.00469970703
96021	25695	213.25	165.65155029297
96021	25730	213.5	167.45465087891
96021	25765	213.75	169.4140625
96021	25800	214	171.45513916016
96021	25837	214.25	173.50640869141
96021	25874	214.5	175.57025146484
96021	25910	214.75	177.64508056641
96021	25945	215	179.72967529297
96021	25980	215.25	181.85485839844
96021	26015	215.5	184.08319091797
96021	26050	215.75	186.45684814453
96021	26085	216	188.90606689453
96021	26120	216.25	191.35321044922
96021	26155	216.5	193.80383300781
96021	26190	216.75	196.26330566406
96021	26225	217	198.73583984375
96021	26259	217.25	201.22418212891
96021	26292	217.5	203.76049804688
96021	26327	217.75	206.40740966797
96021	26362	218	209.20330810547
96021	26397	218.25	212.15307617188
96021	26432	218.5	215.25299072266
96021	26467	218.75	218.50158691406
96021	26502	219	221.89727783203
96021	26537	219.25	225.43640136719
96021	26571	219.5	229.17443847656
96021	26604	219.75	232.92950439453
96021	26637	220	236.70147705078
96021	26670	220.25	240.49011230469
96021	26703	220.5	244.28698730469
96021	26736	220.75	248.10015869141
96021	26769	221	251.92932128906
96021	26802	221.25	255.77410888672
96022	25561	212.25	483.14999389648
96022	25594	212.5	483.14999389648
96022	25627	212.75	483.14999389648
96022	25660	213	483.14999389648
96022	25695	213.25	483.14999389648
96022	25730	213.5	483.14999389648
96022	25765	213.75	483.14999389648
96022	25800	214	483.14999389648
96022	25837	214.25	483.14999389648
96022	25874	214.5	483.14999389648
96022	25910	214.75	483.14999389648
96022	25945	215	483.14999389648
96022	25980	215.25	483.14999389648
96022	26015	215.5	483.14999389648
96022	26050	215.75	483.14999389648
96022	26085	216	483.14999389648
96022	26120	216.25	483.14999389648
96022	26155	216.5	483.14999389648
96022	26190	216.75	483.14999389648
96022	26225	217	483.14999389648
96022	26259	217.25	483.14999389648
96022	26292	217.5	483.14999389648
96022	26327	217.75	483.14999389648
96022	26362	218	483.14999389648
96022	26397	218.25	483.14999389648
96022	26432	218.5	483.14999389648
96022	26467	218.75	483.14999389648
96022	26502	219	483.14999389648
96022	26537	219.25	483.14999389648
96022	26571	219.5	483.14999389648
96022	26604	219.75	483.14999389648
96022	26637	220	483.14999389648
96022	26670	220.25	483.14999389648
96022	26703	220.5	483.14999389648
96022	26736	220.75	483.14999389648
96022	26769	221	483.14999389648
96022	26802	221.25	483.14999389648
96023	25594	212.5	5.6500000953674
96023	25627	212.75	6.2750000953674
96023	25660	213	6.9000000953674
96023	25695	213.25	7.5250000953674
96023	25730	213.5	8.1499996185303
96023	25765	213.75	8.1785306930542
96023	25800	214	8.2317628860474
96023	25837	214.25	8.2792253494263
96023	25874	214.5	8.3194179534912
96023	25910	214.75	8.3569831848145
96023	25945	215	8.6445484161377
96023	25980	215.25	9.1821136474609
96023	26015	215.5	9.8071136474609
96023	26050	215.75	9.7869472503662
96023	26085	216	9.7898359298706
96023	26120	216.25	9.8153533935547
96023	26155	216.5	9.860387802124
96023	26190	216.75	9.9197902679443
96023	26225	217	9.9868841171265
96023	26259	217.25	10.303977966309
96023	26292	217.5	10.871071815491
96023	26327	217.75	11.496071815491
96023	26362	218	12.102132797241
96023	26397	218.25	12.697382926941
96023	26432	218.5	13.291137695312
96023	26467	218.75	13.874532699585
96023	26502	219	14.438403129578
96023	26537	219.25	14.952174186707
96023	26571	219.5	15.020356178284
96023	26604	219.75	15.087882041931
96023	26637	220	15.154593467712
96023	26670	220.25	15.220336914062
96023	26703	220.5	15.284966468811
96023	26736	220.75	15.34833240509
96023	26769	221	15.410285949707
96023	26802	221.25	15.470678329468
96024	25627	212.75	2.5
96024	25660	213	2.5
96024	25695	213.25	2.5
96024	25730	213.5	2.4999980926514
96024	25765	213.75	0.1141242980957
96024	25800	214	0.21292877197266
96024	25837	214.25	0.18984985351562
96024	25874	214.5	0.16077041625977
96024	25910	214.75	0.15026092529297
96024	25945	215	1.150260925293
96024	25980	215.25	2.150260925293
96024	26015	215.5	2.5
96024	26050	215.75	-0.080665588378906
96024	26085	216	0.011554718017578
96024	26120	216.25	0.10206985473633
96024	26155	216.5	0.18013763427734
96024	26190	216.75	0.23760986328125
96024	26225	217	0.26837539672852
96024	26259	217.25	1.2683753967285
96024	26292	217.5	2.2683753967285
96024	26327	217.75	2.5
96024	26362	218	2.424243927002
96024	26397	218.25	2.3810005187988
96024	26432	218.5	2.3750190734863
96024	26467	218.75	2.3335800170898
96024	26502	219	2.2554817199707
96024	26537	219.25	2.0550842285156
96024	26571	219.5	0.27272796630859
96024	26604	219.75	0.27010345458984
96024	26637	220	0.266845703125
96024	26670	220.25	0.26297378540039
96024	26703	220.5	0.25851821899414
96024	26736	220.75	0.25346374511719
96024	26769	221	0.2478141784668
96024	26802	221.25	0.24156951904297
96025	25627	212.75	5.2162187258585
96025	25660	213	5.6304533568076
96025	25695	213.25	6.0461819274774
96025	25730	213.5	6.4635356930995
96025	25765	213.75	1.7800099991285
96025	25800	214	1.981048964581
96025	25837	214.25	1.940621379463
96025	25874	214.5	1.8868627844629
96025	25910	214.75	1.8696877716304
96025	25945	215	3.9830691932848
96025	25980	215.25	6.3827503306659
96025	26015	215.5	7.5790168735285
96025	26050	215.75	1.4784594102
96025	26085	216	1.6961993288706
96025	26120	216.25	1.9122944586327
96025	26155	216.5	2.1022992794631
96025	26190	216.75	2.246751081409
96025	26225	217	2.3297195480496
96025	26259	217.25	4.8578300225158
96025	26292	217.5	7.6960847657669
96025	26327	217.75	8.7313065783554
96025	26362	218	8.9281320488342
96025	26397	218.25	9.1976586784183
96025	26432	218.5	9.5756403227143
96025	26467	218.75	9.8289778418436
96025	26502	219	9.9328618222784
96025	26537	219.25	9.5455414290471
96025	26571	219.5	3.1348813077247
96025	26604	219.75	3.1372749323941
96025	26637	220	3.1371648848195
96025	26670	220.25	3.1345643078603
96025	26703	220.5	3.1295321097198
96025	26736	220.75	3.1219603443045
96025	26769	221	3.1118126071218
96025	26802	221.25	3.0990401994189
96028	25660	213	213.88439941406
96028	25695	213.25	213.88439941406
96028	25730	213.5	215.21875
96028	25765	213.75	216.70935058594
96028	25800	214	218.35626220703
96028	25837	214.25	220.15936279297
96028	25874	214.5	222.11877441406
96028	25910	214.75	224.234375
96028	25945	215	226.50622558594
96028	25980	215.25	228.93438720703
96028	26015	215.5	231.59686279297
96028	26050	215.75	234.41558837891
96028	26085	216	237.39056396484
96028	26120	216.25	240.52178955078
96028	26155	216.5	243.73114013672
96028	26190	216.75	247.09680175781
96028	26225	217	250.61865234375
96028	26259	217.25	254.29681396484
96028	26292	217.5	258.04901123047
96028	26327	217.75	261.79412841797
96028	26362	218	265.53399658203
96028	26397	218.25	269.26989746094
96028	26432	218.5	273.00274658203
96028	26467	218.75	276.73345947266
96028	26502	219	280.46240234375
96028	26537	219.25	284.19012451172
96028	26571	219.5	287.91693115234
96028	26604	219.75	291.64300537109
96028	26637	220	295.36853027344
96028	26670	220.25	299.09368896484
96028	26703	220.5	302.81854248047
96028	26736	220.75	306.54321289062
96028	26769	221	310.26763916016
96028	26802	221.25	313.99200439453
96029	25660	213	483.14999389648
96029	25695	213.25	483.14999389648
96029	25730	213.5	483.14999389648
96029	25765	213.75	483.14999389648
96029	25800	214	483.14999389648
96029	25837	214.25	483.14999389648
96029	25874	214.5	483.14999389648
96029	25910	214.75	483.14999389648
96029	25945	215	483.14999389648
96029	25980	215.25	483.14999389648
96029	26015	215.5	483.14999389648
96029	26050	215.75	483.14999389648
96029	26085	216	483.14999389648
96029	26120	216.25	483.14999389648
96029	26155	216.5	483.14999389648
96029	26190	216.75	483.14999389648
96029	26225	217	483.14999389648
96029	26259	217.25	483.14999389648
96029	26292	217.5	483.14999389648
96029	26327	217.75	483.14999389648
96029	26362	218	483.14999389648
96029	26397	218.25	483.14999389648
96029	26432	218.5	483.14999389648
96029	26467	218.75	483.14999389648
96029	26502	219	483.14999389648
96029	26537	219.25	483.14999389648
96029	26571	219.5	483.14999389648
96029	26604	219.75	483.14999389648
96029	26637	220	483.14999389648
96029	26670	220.25	483.14999389648
96029	26703	220.5	483.14999389648
96029	26736	220.75	483.14999389648
96029	26769	221	483.14999389648
96029	26802	221.25	483.14999389648
96030	25695	213.25	5.6500000953674
96030	25730	213.5	6.2750000953674
96030	25765	213.75	6.9000000953674
96030	25800	214	7.5250000953674
96030	25837	214.25	8.1499996185303
96030	25874	214.5	8.7749996185303
96030	25910	214.75	9.3999996185303
96030	25945	215	10.02499961853
96030	25980	215.25	10.64999961853
96030	26015	215.5	11.27499961853
96030	26050	215.75	11.89999961853
96030	26085	216	12.52499961853
96030	26120	216.25	13.14999961853
96030	26155	216.5	13.77499961853
96030	26190	216.75	14.39999961853
96030	26225	217	15.02499961853
96030	26259	217.25	14.992708206177
96030	26292	217.5	14.968489646912
96030	26327	217.75	14.950325965881
96030	26362	218	14.936702728271
96030	26397	218.25	14.926485061646
96030	26432	218.5	14.918822288513
96030	26467	218.75	14.913075447083
96030	26502	219	14.908764839172
96030	26537	219.25	14.90553188324
96030	26571	219.5	14.903107643127
96030	26604	219.75	14.901288986206
96030	26637	220	14.899925231934
96030	26670	220.25	14.898902893066
96030	26703	220.5	14.898136138916
96030	26736	220.75	14.897560119629
96030	26769	221	14.897129058838
96030	26802	221.25	14.89680480957
96031	25730	213.5	2.5
96031	25765	213.75	2.5
96031	25800	214	2.5
96031	25837	214.25	2.4999980926514
96031	25874	214.5	2.5
96031	25910	214.75	2.5
96031	25945	215	2.5
96031	25980	215.25	2.5
96031	26015	215.5	2.5
96031	26050	215.75	2.5
96031	26085	216	2.5
96031	26120	216.25	2.5
96031	26155	216.5	2.5
96031	26190	216.75	2.5
96031	26225	217	2.5
96031	26259	217.25	-0.12916564941406
96031	26292	217.5	-0.096874237060547
96031	26327	217.75	-0.072654724121094
96031	26362	218	-0.054492950439453
96031	26397	218.25	-0.040870666503906
96031	26432	218.5	-0.030651092529297
96031	26467	218.75	-0.022987365722656
96031	26502	219	-0.017242431640625
96031	26537	219.25	-0.012931823730469
96031	26571	219.5	-0.0096969604492188
96031	26604	219.75	-0.0072746276855469
96031	26637	220	-0.0054550170898438
96031	26670	220.25	-0.00408935546875
96031	26703	220.5	-0.0030670166015625
96031	26736	220.75	-0.0023040771484375
96031	26769	221	-0.0017242431640625
96031	26802	221.25	-0.0012969970703125
96032	25730	213.5	5.2162187258585
96032	25765	213.75	5.6304533568076
96032	25800	214	6.0461819274774
96032	25837	214.25	6.4635356930995
96032	25874	214.5	6.8826618500064
96032	25910	214.75	7.303684162087
96032	25945	215	7.726741696285
96032	25980	215.25	8.1519697732254
96032	26015	215.5	8.5795037135332
96032	26050	215.75	9.0094788378334
96032	26085	216	9.442030466751
96032	26120	216.25	9.8772939209111
96032	26155	216.5	10.315404520939
96032	26190	216.75	10.756497587458
96032	26225	217	11.200708441096
96032	26259	217.25	1.6778656626784
96032	26292	217.5	1.7924332292177
96032	26327	217.75	1.8781181836105
96032	26362	218	1.9422341977555
96032	26397	218.25	1.9902473608253
96032	26432	218.5	2.0262241086194
96032	26467	218.75	2.05317881492
96032	26502	219	2.0733707626114
96032	26537	219.25	2.0885138425761
96032	26571	219.5	2.0998737028516
96032	26604	219.75	2.1083773984753
96032	26637	220	2.1147640940926
96032	26670	220.25	2.119556817119
96032	26703	220.5	2.1231440751858
96032	26736	220.75	2.1258204738826
96032	26769	221	2.1278551310694
96032	26802	221.25	2.1293535510277
96035	25800	214	486.85000610352
96035	25837	214.25	486.85000610352
96035	25874	214.5	486.85000610352
96035	25910	214.75	486.85000610352
96035	25945	215	486.85000610352
96035	25980	215.25	486.85000610352
96035	26015	215.5	486.85000610352
96035	26050	215.75	486.85000610352
96035	26085	216	486.85000610352
96035	26120	216.25	486.85000610352
96035	26155	216.5	486.85000610352
96035	26190	216.75	486.85000610352
96035	26225	217	486.85000610352
96035	26259	217.25	486.85000610352
96035	26292	217.5	486.85000610352
96035	26327	217.75	486.85000610352
96035	26362	218	486.85000610352
96035	26397	218.25	486.85000610352
96035	26432	218.5	486.85000610352
96035	26467	218.75	486.85000610352
96035	26502	219	486.85000610352
96035	26537	219.25	486.85000610352
96035	26571	219.5	486.85000610352
96035	26604	219.75	486.85000610352
96035	26637	220	486.85000610352
96035	26670	220.25	486.85000610352
96035	26703	220.5	486.85000610352
96035	26736	220.75	486.85000610352
96035	26769	221	486.85000610352
96035	26802	221.25	486.85000610352
96036	25800	214	169.95465087891
96036	25837	214.25	169.95465087891
96036	25874	214.5	171.2890625
96036	25910	214.75	172.77966308594
96036	25945	215	174.42657470703
96036	25980	215.25	176.22967529297
96036	26015	215.5	178.18902587891
96036	26050	215.75	180.3046875
96036	26085	216	182.57653808594
96036	26120	216.25	185.00469970703
96036	26155	216.5	187.58905029297
96036	26190	216.75	190.32965087891
96036	26225	217	193.2265625
96036	26259	217.25	196.27966308594
96036	26292	217.5	199.48901367188
96036	26327	217.75	202.85467529297
96036	26362	218	206.37652587891
96036	26397	218.25	210.0546875
96036	26432	218.5	213.81982421875
96036	26467	218.75	217.60278320312
96036	26502	219	221.40350341797
96036	26537	219.25	225.212890625
96036	26571	219.5	229.02209472656
96036	26604	219.75	232.83123779297
96036	26637	220	236.64025878906
96036	26670	220.25	240.44927978516
96036	26703	220.5	244.25823974609
96036	26736	220.75	248.06719970703
96036	26769	221	251.87609863281
96036	26802	221.25	255.68499755859
96037	25837	214.25	5.6500000953674
96037	25874	214.5	6.2750000953674
96037	25910	214.75	6.9000000953674
96037	25945	215	7.5250000953674
96037	25980	215.25	8.1499996185303
96037	26015	215.5	8.7749996185303
96037	26050	215.75	9.3999996185303
96037	26085	216	10.02499961853
96037	26120	216.25	10.64999961853
96037	26155	216.5	11.27499961853
96037	26190	216.75	11.89999961853
96037	26225	217	12.52499961853
96037	26259	217.25	13.14999961853
96037	26292	217.5	13.77499961853
96037	26327	217.75	14.39999961853
96037	26362	218	15.02499961853
96037	26397	218.25	15.096382141113
96037	26432	218.5	15.167410850525
96037	26467	218.75	15.238024711609
96037	26502	219	15.23735332489
96037	26537	219.25	15.236849784851
96037	26571	219.5	15.236472129822
96037	26604	219.75	15.23618888855
96037	26637	220	15.235977172852
96037	26670	220.25	15.235817909241
96037	26703	220.5	15.235698699951
96037	26736	220.75	15.235609054565
96037	26769	221	15.235542297363
96037	26802	221.25	15.235491752625
96038	25874	214.5	2.5
96038	25910	214.75	2.5
96038	25945	215	2.5
96038	25980	215.25	2.4999980926514
96038	26015	215.5	2.5
96038	26050	215.75	2.5
96038	26085	216	2.5
96038	26120	216.25	2.5
96038	26155	216.5	2.5
96038	26190	216.75	2.5
96038	26225	217	2.5
96038	26259	217.25	2.5
96038	26292	217.5	2.5
96038	26327	217.75	2.5
96038	26362	218	2.5
96038	26397	218.25	0.28553009033203
96038	26432	218.5	0.28411483764648
96038	26467	218.75	0.28245544433594
96038	26502	219	-0.002685546875
96038	26537	219.25	-0.00201416015625
96038	26571	219.5	-0.0015106201171875
96038	26604	219.75	-0.0011329650878906
96038	26637	220	-0.00084686279296875
96038	26670	220.25	-0.00063705444335938
96038	26703	220.5	-0.00047683715820312
96038	26736	220.75	-0.00035858154296875
96038	26769	221	-0.00026702880859375
96038	26802	221.25	-0.00020217895507812
96039	25874	214.5	5.2162187258585
96039	25910	214.75	5.6304533568076
96039	25945	215	6.0461819274774
96039	25980	215.25	6.4635356930995
96039	26015	215.5	6.8826618500064
96039	26050	215.75	7.303684162087
96039	26085	216	7.726741696285
96039	26120	216.25	8.1519697732254
96039	26155	216.5	8.5795037135332
96039	26190	216.75	9.0094788378334
96039	26225	217	9.442030466751
96039	26259	217.25	9.8772939209111
96039	26292	217.5	10.315404520939
96039	26327	217.75	10.756497587458
96039	26362	218	11.200708441096
96039	26397	218.25	3.1949004712008
96039	26432	218.5	3.2025486276941
96039	26467	218.75	3.2092191994753
96039	26502	219	2.1620025458501
96039	26537	219.25	2.164411568176
96039	26571	219.5	2.1662182293899
96039	26604	219.75	2.1675731659394
96039	26637	220	2.1685999206389
96039	26670	220.25	2.1693524054864
96039	26703	220.5	2.1699272906183
96039	26736	220.75	2.1703514183183
96039	26769	221	2.1706800694368
96039	26802	221.25	2.1709124955847
96042	26292	217.5	483.14999389648
96042	26327	217.75	483.14999389648
96042	26362	218	483.14999389648
96042	26397	218.25	483.14999389648
96042	26432	218.5	483.14999389648
96042	26467	218.75	483.14999389648
96042	26502	219	483.14999389648
96042	26537	219.25	483.14999389648
96042	26571	219.5	483.14999389648
96042	26604	219.75	483.14999389648
96042	26637	220	483.14999389648
96042	26670	220.25	483.14999389648
96042	26703	220.5	483.14999389648
96042	26736	220.75	483.14999389648
96042	26769	221	483.14999389648
96042	26802	221.25	483.14999389648
96043	26292	217.5	785.82187652588
96043	26327	217.75	785.82187652588
96043	26362	218	784.48750305176
96043	26397	218.25	782.99687957764
96043	26432	218.5	781.35000610352
96043	26467	218.75	779.54688262939
96043	26502	219	777.58750915527
96043	26537	219.25	775.47188568115
96043	26571	219.5	773.20001220703
96043	26604	219.75	770.77188873291
96043	26637	220	768.18751525879
96043	26670	220.25	765.44688415527
96043	26703	220.5	762.55001068115
96043	26736	220.75	759.49688720703
96043	26769	221	756.28750610352
96043	26802	221.25	752.92188262939
96044	26327	217.75	5.6500000953674
96044	26362	218	6.2750000953674
96044	26397	218.25	6.9000000953674
96044	26432	218.5	7.5250000953674
96044	26467	218.75	8.1499996185303
96044	26502	219	8.7749996185303
96044	26537	219.25	9.3999996185303
96044	26571	219.5	10.02499961853
96044	26604	219.75	10.64999961853
96044	26637	220	11.27499961853
96044	26670	220.25	11.89999961853
96044	26703	220.5	12.52499961853
96044	26736	220.75	13.14999961853
96044	26769	221	13.77499961853
96044	26802	221.25	14.39999961853
96045	26362	218	2.5
96045	26397	218.25	2.5
96045	26432	218.5	2.5
96045	26467	218.75	2.4999980926514
96045	26502	219	2.5
96045	26537	219.25	2.5
96045	26571	219.5	2.5
96045	26604	219.75	2.5
96045	26637	220	2.5
96045	26670	220.25	2.5
96045	26703	220.5	2.5
96045	26736	220.75	2.5
96045	26769	221	2.5
96045	26802	221.25	2.5
96046	26362	218	5.2162187258585
96046	26397	218.25	5.6304533568076
96046	26432	218.5	6.0461819274774
96046	26467	218.75	6.4635356930995
96046	26502	219	6.8826618500064
96046	26537	219.25	7.303684162087
96046	26571	219.5	7.726741696285
96046	26604	219.75	8.1519697732254
96046	26637	220	8.5795037135332
96046	26670	220.25	9.0094788378334
96046	26703	220.5	9.442030466751
96046	26736	220.75	9.8772939209111
96046	26769	221	10.315404520939
96046	26802	221.25	10.756497587458
