version 2
run nodebug-30-20200606-13:15:02-21956
attr configname nodebug
attr datetime 20200606-13:15:02
attr experiment nodebug
attr inifile omnetpp.ini
attr iterationvars ""
attr iterationvars2 $repetition=30
attr measurement ""
attr network "\"org.car2x.veins.modules.application.ExtTraCIScenarioManagerLaunchd.IntersectionExampleScenario\""
attr processid 21956
attr repetition 30
attr replication #30
attr resultdir results
attr runnumber 30
attr seedset 30
param **.coreDebug false
param **.debug false
param *.**.nic.mac1609_4.bitrate 18Mbps
param *.**.nic.mac1609_4.txPower 20mW
param *.**.nic.mac1609_4.useServiceChannel false
param *.**.nic.phy80211p.analogueModels "xmldoc(\"config.xml\")"
param *.**.nic.phy80211p.decider "xmldoc(\"config.xml\")"
param *.**.nic.phy80211p.sensitivity -89dBm
param *.**.nic.phy80211p.thermalNoise -110dBm
param *.**.nic.phy80211p.usePropagationDelay true
param *.**.nic.phy80211p.useThermalNoise true
param *.annotations.draw false
param *.connectionManager.alpha 2.0
param *.connectionManager.carrierFrequency "5.890e9 Hz"
param *.connectionManager.pMax 20mW
param *.connectionManager.sat -89dBm
param *.connectionManager.sendDirect true
param *.manager.autoShutdown true
param *.manager.host "\"localhost\""
param *.manager.launchConfig "xmldoc(\"paramics.launchd.xml\")"
param *.manager.margin 25
param *.manager.moduleDisplayString "\"\""
param *.manager.moduleName "\"node\""
param *.manager.moduleType "\"org.car2x.veins.nodes.Car\""
param *.manager.port 9999
param *.manager.updateInterval 250ms
param *.node[*0].veinsmobility.accidentCount 0
param *.node[*0].veinsmobility.accidentDuration 30s
param *.node[*0].veinsmobility.accidentStart 75s
param *.node[*].appl.LiderSelectZoneRadio 55.0
param *.node[*].appl.ShareDataZoneRadio 110.0
param *.node[*].appl.TiempoSemaforo 30.0
param *.node[*].appl.beaconInterval 1s
param *.node[*].appl.beaconPriority 3
param *.node[*].appl.dataOnSch false
param *.node[*].appl.dataPriority 2
param *.node[*].appl.debug false
param *.node[*].appl.headerLength "256 bit"
param *.node[*].appl.maxOffset 0.005s
param *.node[*].appl.sendBeacons false
param *.node[*].appl.sendData true
param *.node[*].applType "\"Dummy\""
param *.node[*].mobilityType "\"TraCIMobility\""
param *.node[*].mobilityType.debug true
param *.node[*].veinsmobility.x 0
param *.node[*].veinsmobility.y 0
param *.node[*].veinsmobility.z 1.895
param *.node[*].veinsmobilityType "\"org.car2x.veins.modules.mobility.traci.TraCIMobility\""
param *.node[*].veinsmobilityType.debug true
param *.playgroundSizeX 8500m
param *.playgroundSizeY 8500m
param *.playgroundSizeZ 50m
param *.world.use2D false
param *.world.useTorus false

scalar IntersectionExampleScenario.node[1].appl 	VehicleRemoved 	0
scalar IntersectionExampleScenario.node[1].appl 	ArrivedAtDest 	1
scalar IntersectionExampleScenario.node[1].appl 	IntersectionEnterTime 	4.25
scalar IntersectionExampleScenario.node[1].appl 	IntersectionExitTime 	27.029382236506
scalar IntersectionExampleScenario.node[1].appl 	NumberOfCollisions 	0
scalar IntersectionExampleScenario.node[1].nic.phy80211p 	busyTime 	0
scalar IntersectionExampleScenario.node[1].nic.mac1609_4 	ReceivedUnicastPackets 	0
scalar IntersectionExampleScenario.node[1].nic.mac1609_4 	ReceivedBroadcasts 	0
scalar IntersectionExampleScenario.node[1].nic.mac1609_4 	SentPackets 	0
scalar IntersectionExampleScenario.node[1].nic.mac1609_4 	SNIRLostPackets 	0
scalar IntersectionExampleScenario.node[1].nic.mac1609_4 	RXTXLostPackets 	0
scalar IntersectionExampleScenario.node[1].nic.mac1609_4 	TotalLostPackets 	0
scalar IntersectionExampleScenario.node[1].nic.mac1609_4 	DroppedPacketsInMac 	0
scalar IntersectionExampleScenario.node[1].nic.mac1609_4 	TooLittleTime 	0
scalar IntersectionExampleScenario.node[1].nic.mac1609_4 	TimesIntoBackoff 	0
scalar IntersectionExampleScenario.node[1].nic.mac1609_4 	SlotsBackoff 	0
scalar IntersectionExampleScenario.node[1].nic.mac1609_4 	NumInternalContention 	0
scalar IntersectionExampleScenario.node[1].nic.mac1609_4 	totalBusyTime 	0
scalar IntersectionExampleScenario.node[1].veinsmobility 	startTime 	4.25
scalar IntersectionExampleScenario.node[1].veinsmobility 	totalTime 	38.75
scalar IntersectionExampleScenario.node[1].veinsmobility 	stopTime 	43.25
scalar IntersectionExampleScenario.node[1].veinsmobility 	minSpeed 	5.6500000953674
scalar IntersectionExampleScenario.node[1].veinsmobility 	maxSpeed 	15.64999961853
scalar IntersectionExampleScenario.node[1].veinsmobility 	totalDistance 	553.98722076416
scalar IntersectionExampleScenario.node[1].veinsmobility 	totalCO2Emission 	118.09265819258
scalar IntersectionExampleScenario.node[2].appl 	VehicleRemoved 	0
scalar IntersectionExampleScenario.node[2].appl 	ArrivedAtDest 	1
scalar IntersectionExampleScenario.node[2].appl 	IntersectionEnterTime 	5.25
scalar IntersectionExampleScenario.node[2].appl 	IntersectionExitTime 	29.568017036247
scalar IntersectionExampleScenario.node[2].appl 	NumberOfCollisions 	0
scalar IntersectionExampleScenario.node[2].nic.phy80211p 	busyTime 	0
scalar IntersectionExampleScenario.node[2].nic.mac1609_4 	ReceivedUnicastPackets 	0
scalar IntersectionExampleScenario.node[2].nic.mac1609_4 	ReceivedBroadcasts 	0
scalar IntersectionExampleScenario.node[2].nic.mac1609_4 	SentPackets 	0
scalar IntersectionExampleScenario.node[2].nic.mac1609_4 	SNIRLostPackets 	0
scalar IntersectionExampleScenario.node[2].nic.mac1609_4 	RXTXLostPackets 	0
scalar IntersectionExampleScenario.node[2].nic.mac1609_4 	TotalLostPackets 	0
scalar IntersectionExampleScenario.node[2].nic.mac1609_4 	DroppedPacketsInMac 	0
scalar IntersectionExampleScenario.node[2].nic.mac1609_4 	TooLittleTime 	0
scalar IntersectionExampleScenario.node[2].nic.mac1609_4 	TimesIntoBackoff 	0
scalar IntersectionExampleScenario.node[2].nic.mac1609_4 	SlotsBackoff 	0
scalar IntersectionExampleScenario.node[2].nic.mac1609_4 	NumInternalContention 	0
scalar IntersectionExampleScenario.node[2].nic.mac1609_4 	totalBusyTime 	0
scalar IntersectionExampleScenario.node[2].veinsmobility 	startTime 	5.25
scalar IntersectionExampleScenario.node[2].veinsmobility 	totalTime 	40.25
scalar IntersectionExampleScenario.node[2].veinsmobility 	stopTime 	45.75
scalar IntersectionExampleScenario.node[2].veinsmobility 	minSpeed 	5.6500000953674
scalar IntersectionExampleScenario.node[2].veinsmobility 	maxSpeed 	16
scalar IntersectionExampleScenario.node[2].veinsmobility 	totalDistance 	574.33031582736
scalar IntersectionExampleScenario.node[2].veinsmobility 	totalCO2Emission 	131.74743592999
scalar IntersectionExampleScenario.node[3].appl 	VehicleRemoved 	0
scalar IntersectionExampleScenario.node[3].appl 	ArrivedAtDest 	1
scalar IntersectionExampleScenario.node[3].appl 	IntersectionEnterTime 	8.5
scalar IntersectionExampleScenario.node[3].appl 	IntersectionExitTime 	35.511212923418
scalar IntersectionExampleScenario.node[3].appl 	NumberOfCollisions 	0
scalar IntersectionExampleScenario.node[3].nic.phy80211p 	busyTime 	0
scalar IntersectionExampleScenario.node[3].nic.mac1609_4 	ReceivedUnicastPackets 	0
scalar IntersectionExampleScenario.node[3].nic.mac1609_4 	ReceivedBroadcasts 	0
scalar IntersectionExampleScenario.node[3].nic.mac1609_4 	SentPackets 	0
scalar IntersectionExampleScenario.node[3].nic.mac1609_4 	SNIRLostPackets 	0
scalar IntersectionExampleScenario.node[3].nic.mac1609_4 	RXTXLostPackets 	0
scalar IntersectionExampleScenario.node[3].nic.mac1609_4 	TotalLostPackets 	0
scalar IntersectionExampleScenario.node[3].nic.mac1609_4 	DroppedPacketsInMac 	0
scalar IntersectionExampleScenario.node[3].nic.mac1609_4 	TooLittleTime 	0
scalar IntersectionExampleScenario.node[3].nic.mac1609_4 	TimesIntoBackoff 	0
scalar IntersectionExampleScenario.node[3].nic.mac1609_4 	SlotsBackoff 	0
scalar IntersectionExampleScenario.node[3].nic.mac1609_4 	NumInternalContention 	0
scalar IntersectionExampleScenario.node[3].nic.mac1609_4 	totalBusyTime 	0
scalar IntersectionExampleScenario.node[3].veinsmobility 	startTime 	8.5
scalar IntersectionExampleScenario.node[3].veinsmobility 	totalTime 	43
scalar IntersectionExampleScenario.node[3].veinsmobility 	stopTime 	51.75
scalar IntersectionExampleScenario.node[3].veinsmobility 	minSpeed 	0
scalar IntersectionExampleScenario.node[3].veinsmobility 	maxSpeed 	16.89999961853
scalar IntersectionExampleScenario.node[3].veinsmobility 	totalDistance 	546.36792661101
scalar IntersectionExampleScenario.node[3].veinsmobility 	totalCO2Emission 	144.48531354115
scalar IntersectionExampleScenario.node[7].appl 	VehicleRemoved 	0
scalar IntersectionExampleScenario.node[7].appl 	ArrivedAtDest 	1
scalar IntersectionExampleScenario.node[7].appl 	IntersectionEnterTime 	20
scalar IntersectionExampleScenario.node[7].appl 	IntersectionExitTime 	43.04587341586
scalar IntersectionExampleScenario.node[7].appl 	NumberOfCollisions 	0
scalar IntersectionExampleScenario.node[7].nic.phy80211p 	busyTime 	0
scalar IntersectionExampleScenario.node[7].nic.mac1609_4 	ReceivedUnicastPackets 	0
scalar IntersectionExampleScenario.node[7].nic.mac1609_4 	ReceivedBroadcasts 	0
scalar IntersectionExampleScenario.node[7].nic.mac1609_4 	SentPackets 	0
scalar IntersectionExampleScenario.node[7].nic.mac1609_4 	SNIRLostPackets 	0
scalar IntersectionExampleScenario.node[7].nic.mac1609_4 	RXTXLostPackets 	0
scalar IntersectionExampleScenario.node[7].nic.mac1609_4 	TotalLostPackets 	0
scalar IntersectionExampleScenario.node[7].nic.mac1609_4 	DroppedPacketsInMac 	0
scalar IntersectionExampleScenario.node[7].nic.mac1609_4 	TooLittleTime 	0
scalar IntersectionExampleScenario.node[7].nic.mac1609_4 	TimesIntoBackoff 	0
scalar IntersectionExampleScenario.node[7].nic.mac1609_4 	SlotsBackoff 	0
scalar IntersectionExampleScenario.node[7].nic.mac1609_4 	NumInternalContention 	0
scalar IntersectionExampleScenario.node[7].nic.mac1609_4 	totalBusyTime 	0
scalar IntersectionExampleScenario.node[7].veinsmobility 	startTime 	20
scalar IntersectionExampleScenario.node[7].veinsmobility 	totalTime 	39.25
scalar IntersectionExampleScenario.node[7].veinsmobility 	stopTime 	59.5
scalar IntersectionExampleScenario.node[7].veinsmobility 	minSpeed 	5.6500000953674
scalar IntersectionExampleScenario.node[7].veinsmobility 	maxSpeed 	16.27499961853
scalar IntersectionExampleScenario.node[7].veinsmobility 	totalDistance 	543.38079258438
scalar IntersectionExampleScenario.node[7].veinsmobility 	totalCO2Emission 	129.39583916185
scalar IntersectionExampleScenario.node[0].appl 	VehicleRemoved 	0
scalar IntersectionExampleScenario.node[0].appl 	ArrivedAtDest 	1
scalar IntersectionExampleScenario.node[0].appl 	IntersectionEnterTime 	1.75
scalar IntersectionExampleScenario.node[0].appl 	IntersectionExitTime 	45.520456340833
scalar IntersectionExampleScenario.node[0].appl 	NumberOfCollisions 	0
scalar IntersectionExampleScenario.node[0].nic.phy80211p 	busyTime 	0
scalar IntersectionExampleScenario.node[0].nic.mac1609_4 	ReceivedUnicastPackets 	0
scalar IntersectionExampleScenario.node[0].nic.mac1609_4 	ReceivedBroadcasts 	0
scalar IntersectionExampleScenario.node[0].nic.mac1609_4 	SentPackets 	0
scalar IntersectionExampleScenario.node[0].nic.mac1609_4 	SNIRLostPackets 	0
scalar IntersectionExampleScenario.node[0].nic.mac1609_4 	RXTXLostPackets 	0
scalar IntersectionExampleScenario.node[0].nic.mac1609_4 	TotalLostPackets 	0
scalar IntersectionExampleScenario.node[0].nic.mac1609_4 	DroppedPacketsInMac 	0
scalar IntersectionExampleScenario.node[0].nic.mac1609_4 	TooLittleTime 	0
scalar IntersectionExampleScenario.node[0].nic.mac1609_4 	TimesIntoBackoff 	0
scalar IntersectionExampleScenario.node[0].nic.mac1609_4 	SlotsBackoff 	0
scalar IntersectionExampleScenario.node[0].nic.mac1609_4 	NumInternalContention 	0
scalar IntersectionExampleScenario.node[0].nic.mac1609_4 	totalBusyTime 	0
scalar IntersectionExampleScenario.node[0].veinsmobility 	startTime 	1.75
scalar IntersectionExampleScenario.node[0].veinsmobility 	totalTime 	60.25
scalar IntersectionExampleScenario.node[0].veinsmobility 	stopTime 	62.25
scalar IntersectionExampleScenario.node[0].veinsmobility 	minSpeed 	0
scalar IntersectionExampleScenario.node[0].veinsmobility 	maxSpeed 	15.875
scalar IntersectionExampleScenario.node[0].veinsmobility 	totalDistance 	544.83438016326
scalar IntersectionExampleScenario.node[0].veinsmobility 	totalCO2Emission 	154.21895034678
scalar IntersectionExampleScenario.node[6].appl 	VehicleRemoved 	0
scalar IntersectionExampleScenario.node[6].appl 	ArrivedAtDest 	1
scalar IntersectionExampleScenario.node[6].appl 	IntersectionEnterTime 	13.5
scalar IntersectionExampleScenario.node[6].appl 	IntersectionExitTime 	47.297052529786
scalar IntersectionExampleScenario.node[6].appl 	NumberOfCollisions 	0
scalar IntersectionExampleScenario.node[6].nic.phy80211p 	busyTime 	0
scalar IntersectionExampleScenario.node[6].nic.mac1609_4 	ReceivedUnicastPackets 	0
scalar IntersectionExampleScenario.node[6].nic.mac1609_4 	ReceivedBroadcasts 	0
scalar IntersectionExampleScenario.node[6].nic.mac1609_4 	SentPackets 	0
scalar IntersectionExampleScenario.node[6].nic.mac1609_4 	SNIRLostPackets 	0
scalar IntersectionExampleScenario.node[6].nic.mac1609_4 	RXTXLostPackets 	0
scalar IntersectionExampleScenario.node[6].nic.mac1609_4 	TotalLostPackets 	0
scalar IntersectionExampleScenario.node[6].nic.mac1609_4 	DroppedPacketsInMac 	0
scalar IntersectionExampleScenario.node[6].nic.mac1609_4 	TooLittleTime 	0
scalar IntersectionExampleScenario.node[6].nic.mac1609_4 	TimesIntoBackoff 	0
scalar IntersectionExampleScenario.node[6].nic.mac1609_4 	SlotsBackoff 	0
scalar IntersectionExampleScenario.node[6].nic.mac1609_4 	NumInternalContention 	0
scalar IntersectionExampleScenario.node[6].nic.mac1609_4 	totalBusyTime 	0
scalar IntersectionExampleScenario.node[6].veinsmobility 	startTime 	13.5
scalar IntersectionExampleScenario.node[6].veinsmobility 	totalTime 	50.75
scalar IntersectionExampleScenario.node[6].veinsmobility 	stopTime 	64.5
scalar IntersectionExampleScenario.node[6].veinsmobility 	minSpeed 	1.1549011468887
scalar IntersectionExampleScenario.node[6].veinsmobility 	maxSpeed 	15.02499961853
scalar IntersectionExampleScenario.node[6].veinsmobility 	totalDistance 	550.61387079678
scalar IntersectionExampleScenario.node[6].veinsmobility 	totalCO2Emission 	134.19549760263
scalar IntersectionExampleScenario.node[8].appl 	VehicleRemoved 	0
scalar IntersectionExampleScenario.node[8].appl 	ArrivedAtDest 	1
scalar IntersectionExampleScenario.node[8].appl 	IntersectionEnterTime 	20.5
scalar IntersectionExampleScenario.node[8].appl 	IntersectionExitTime 	49.093017125648
scalar IntersectionExampleScenario.node[8].appl 	NumberOfCollisions 	0
scalar IntersectionExampleScenario.node[8].nic.phy80211p 	busyTime 	0
scalar IntersectionExampleScenario.node[8].nic.mac1609_4 	ReceivedUnicastPackets 	0
scalar IntersectionExampleScenario.node[8].nic.mac1609_4 	ReceivedBroadcasts 	0
scalar IntersectionExampleScenario.node[8].nic.mac1609_4 	SentPackets 	0
scalar IntersectionExampleScenario.node[8].nic.mac1609_4 	SNIRLostPackets 	0
scalar IntersectionExampleScenario.node[8].nic.mac1609_4 	RXTXLostPackets 	0
scalar IntersectionExampleScenario.node[8].nic.mac1609_4 	TotalLostPackets 	0
scalar IntersectionExampleScenario.node[8].nic.mac1609_4 	DroppedPacketsInMac 	0
scalar IntersectionExampleScenario.node[8].nic.mac1609_4 	TooLittleTime 	0
scalar IntersectionExampleScenario.node[8].nic.mac1609_4 	TimesIntoBackoff 	0
scalar IntersectionExampleScenario.node[8].nic.mac1609_4 	SlotsBackoff 	0
scalar IntersectionExampleScenario.node[8].nic.mac1609_4 	NumInternalContention 	0
scalar IntersectionExampleScenario.node[8].nic.mac1609_4 	totalBusyTime 	0
scalar IntersectionExampleScenario.node[8].veinsmobility 	startTime 	20.5
scalar IntersectionExampleScenario.node[8].veinsmobility 	totalTime 	44.75
scalar IntersectionExampleScenario.node[8].veinsmobility 	stopTime 	65.5
scalar IntersectionExampleScenario.node[8].veinsmobility 	minSpeed 	5.2396330833435
scalar IntersectionExampleScenario.node[8].veinsmobility 	maxSpeed 	15.5
scalar IntersectionExampleScenario.node[8].veinsmobility 	totalDistance 	553.45053863525
scalar IntersectionExampleScenario.node[8].veinsmobility 	totalCO2Emission 	132.9770716424
scalar IntersectionExampleScenario.node[4].appl 	VehicleRemoved 	0
scalar IntersectionExampleScenario.node[4].appl 	ArrivedAtDest 	1
scalar IntersectionExampleScenario.node[4].appl 	IntersectionEnterTime 	11.75
scalar IntersectionExampleScenario.node[4].appl 	IntersectionExitTime 	54.529873295804
scalar IntersectionExampleScenario.node[4].appl 	NumberOfCollisions 	0
scalar IntersectionExampleScenario.node[4].nic.phy80211p 	busyTime 	0
scalar IntersectionExampleScenario.node[4].nic.mac1609_4 	ReceivedUnicastPackets 	0
scalar IntersectionExampleScenario.node[4].nic.mac1609_4 	ReceivedBroadcasts 	0
scalar IntersectionExampleScenario.node[4].nic.mac1609_4 	SentPackets 	0
scalar IntersectionExampleScenario.node[4].nic.mac1609_4 	SNIRLostPackets 	0
scalar IntersectionExampleScenario.node[4].nic.mac1609_4 	RXTXLostPackets 	0
scalar IntersectionExampleScenario.node[4].nic.mac1609_4 	TotalLostPackets 	0
scalar IntersectionExampleScenario.node[4].nic.mac1609_4 	DroppedPacketsInMac 	0
scalar IntersectionExampleScenario.node[4].nic.mac1609_4 	TooLittleTime 	0
scalar IntersectionExampleScenario.node[4].nic.mac1609_4 	TimesIntoBackoff 	0
scalar IntersectionExampleScenario.node[4].nic.mac1609_4 	SlotsBackoff 	0
scalar IntersectionExampleScenario.node[4].nic.mac1609_4 	NumInternalContention 	0
scalar IntersectionExampleScenario.node[4].nic.mac1609_4 	totalBusyTime 	0
scalar IntersectionExampleScenario.node[4].veinsmobility 	startTime 	11.75
scalar IntersectionExampleScenario.node[4].veinsmobility 	totalTime 	59.5
scalar IntersectionExampleScenario.node[4].veinsmobility 	stopTime 	71.5
scalar IntersectionExampleScenario.node[4].veinsmobility 	minSpeed 	0
scalar IntersectionExampleScenario.node[4].veinsmobility 	maxSpeed 	15.64999961853
scalar IntersectionExampleScenario.node[4].veinsmobility 	totalDistance 	543.89903165252
scalar IntersectionExampleScenario.node[4].veinsmobility 	totalCO2Emission 	151.59876726844
scalar IntersectionExampleScenario.node[5].appl 	VehicleRemoved 	0
scalar IntersectionExampleScenario.node[5].appl 	ArrivedAtDest 	1
scalar IntersectionExampleScenario.node[5].appl 	IntersectionEnterTime 	12
scalar IntersectionExampleScenario.node[5].appl 	IntersectionExitTime 	56.253891344037
scalar IntersectionExampleScenario.node[5].appl 	NumberOfCollisions 	0
scalar IntersectionExampleScenario.node[5].nic.phy80211p 	busyTime 	0
scalar IntersectionExampleScenario.node[5].nic.mac1609_4 	ReceivedUnicastPackets 	0
scalar IntersectionExampleScenario.node[5].nic.mac1609_4 	ReceivedBroadcasts 	0
scalar IntersectionExampleScenario.node[5].nic.mac1609_4 	SentPackets 	0
scalar IntersectionExampleScenario.node[5].nic.mac1609_4 	SNIRLostPackets 	0
scalar IntersectionExampleScenario.node[5].nic.mac1609_4 	RXTXLostPackets 	0
scalar IntersectionExampleScenario.node[5].nic.mac1609_4 	TotalLostPackets 	0
scalar IntersectionExampleScenario.node[5].nic.mac1609_4 	DroppedPacketsInMac 	0
scalar IntersectionExampleScenario.node[5].nic.mac1609_4 	TooLittleTime 	0
scalar IntersectionExampleScenario.node[5].nic.mac1609_4 	TimesIntoBackoff 	0
scalar IntersectionExampleScenario.node[5].nic.mac1609_4 	SlotsBackoff 	0
scalar IntersectionExampleScenario.node[5].nic.mac1609_4 	NumInternalContention 	0
scalar IntersectionExampleScenario.node[5].nic.mac1609_4 	totalBusyTime 	0
scalar IntersectionExampleScenario.node[5].veinsmobility 	startTime 	12
scalar IntersectionExampleScenario.node[5].veinsmobility 	totalTime 	59.5
scalar IntersectionExampleScenario.node[5].veinsmobility 	stopTime 	71.75
scalar IntersectionExampleScenario.node[5].veinsmobility 	minSpeed 	-0.57019734382629
scalar IntersectionExampleScenario.node[5].veinsmobility 	maxSpeed 	16.125
scalar IntersectionExampleScenario.node[5].veinsmobility 	totalDistance 	577.03639984131
scalar IntersectionExampleScenario.node[5].veinsmobility 	totalCO2Emission 	160.68436495752
scalar IntersectionExampleScenario.node[10].appl 	VehicleRemoved 	0
scalar IntersectionExampleScenario.node[10].appl 	ArrivedAtDest 	1
scalar IntersectionExampleScenario.node[10].appl 	IntersectionEnterTime 	27.75
scalar IntersectionExampleScenario.node[10].appl 	IntersectionExitTime 	58.042713342671
scalar IntersectionExampleScenario.node[10].appl 	NumberOfCollisions 	0
scalar IntersectionExampleScenario.node[10].nic.phy80211p 	busyTime 	0
scalar IntersectionExampleScenario.node[10].nic.mac1609_4 	ReceivedUnicastPackets 	0
scalar IntersectionExampleScenario.node[10].nic.mac1609_4 	ReceivedBroadcasts 	0
scalar IntersectionExampleScenario.node[10].nic.mac1609_4 	SentPackets 	0
scalar IntersectionExampleScenario.node[10].nic.mac1609_4 	SNIRLostPackets 	0
scalar IntersectionExampleScenario.node[10].nic.mac1609_4 	RXTXLostPackets 	0
scalar IntersectionExampleScenario.node[10].nic.mac1609_4 	TotalLostPackets 	0
scalar IntersectionExampleScenario.node[10].nic.mac1609_4 	DroppedPacketsInMac 	0
scalar IntersectionExampleScenario.node[10].nic.mac1609_4 	TooLittleTime 	0
scalar IntersectionExampleScenario.node[10].nic.mac1609_4 	TimesIntoBackoff 	0
scalar IntersectionExampleScenario.node[10].nic.mac1609_4 	SlotsBackoff 	0
scalar IntersectionExampleScenario.node[10].nic.mac1609_4 	NumInternalContention 	0
scalar IntersectionExampleScenario.node[10].nic.mac1609_4 	totalBusyTime 	0
scalar IntersectionExampleScenario.node[10].veinsmobility 	startTime 	27.75
scalar IntersectionExampleScenario.node[10].veinsmobility 	totalTime 	46.25
scalar IntersectionExampleScenario.node[10].veinsmobility 	stopTime 	74.25
scalar IntersectionExampleScenario.node[10].veinsmobility 	minSpeed 	2.9482235908508
scalar IntersectionExampleScenario.node[10].veinsmobility 	maxSpeed 	15.64999961853
scalar IntersectionExampleScenario.node[10].veinsmobility 	totalDistance 	554.04630279541
scalar IntersectionExampleScenario.node[10].veinsmobility 	totalCO2Emission 	135.44603122929
scalar IntersectionExampleScenario.node[13].appl 	VehicleRemoved 	0
scalar IntersectionExampleScenario.node[13].appl 	ArrivedAtDest 	1
scalar IntersectionExampleScenario.node[13].appl 	IntersectionEnterTime 	32.5
scalar IntersectionExampleScenario.node[13].appl 	IntersectionExitTime 	60.053202718758
scalar IntersectionExampleScenario.node[13].appl 	NumberOfCollisions 	0
scalar IntersectionExampleScenario.node[13].nic.phy80211p 	busyTime 	0
scalar IntersectionExampleScenario.node[13].nic.mac1609_4 	ReceivedUnicastPackets 	0
scalar IntersectionExampleScenario.node[13].nic.mac1609_4 	ReceivedBroadcasts 	0
scalar IntersectionExampleScenario.node[13].nic.mac1609_4 	SentPackets 	0
scalar IntersectionExampleScenario.node[13].nic.mac1609_4 	SNIRLostPackets 	0
scalar IntersectionExampleScenario.node[13].nic.mac1609_4 	RXTXLostPackets 	0
scalar IntersectionExampleScenario.node[13].nic.mac1609_4 	TotalLostPackets 	0
scalar IntersectionExampleScenario.node[13].nic.mac1609_4 	DroppedPacketsInMac 	0
scalar IntersectionExampleScenario.node[13].nic.mac1609_4 	TooLittleTime 	0
scalar IntersectionExampleScenario.node[13].nic.mac1609_4 	TimesIntoBackoff 	0
scalar IntersectionExampleScenario.node[13].nic.mac1609_4 	SlotsBackoff 	0
scalar IntersectionExampleScenario.node[13].nic.mac1609_4 	NumInternalContention 	0
scalar IntersectionExampleScenario.node[13].nic.mac1609_4 	totalBusyTime 	0
scalar IntersectionExampleScenario.node[13].veinsmobility 	startTime 	32.5
scalar IntersectionExampleScenario.node[13].veinsmobility 	totalTime 	43
scalar IntersectionExampleScenario.node[13].veinsmobility 	stopTime 	75.75
scalar IntersectionExampleScenario.node[13].veinsmobility 	minSpeed 	3.746059179306
scalar IntersectionExampleScenario.node[13].veinsmobility 	maxSpeed 	15.64999961853
scalar IntersectionExampleScenario.node[13].veinsmobility 	totalDistance 	525.55059814453
scalar IntersectionExampleScenario.node[13].veinsmobility 	totalCO2Emission 	133.12608847813
scalar IntersectionExampleScenario.node[11].appl 	VehicleRemoved 	0
scalar IntersectionExampleScenario.node[11].appl 	ArrivedAtDest 	1
scalar IntersectionExampleScenario.node[11].appl 	IntersectionEnterTime 	30.25
scalar IntersectionExampleScenario.node[11].appl 	IntersectionExitTime 	62.011010334361
scalar IntersectionExampleScenario.node[11].appl 	NumberOfCollisions 	0
scalar IntersectionExampleScenario.node[11].nic.phy80211p 	busyTime 	0
scalar IntersectionExampleScenario.node[11].nic.mac1609_4 	ReceivedUnicastPackets 	0
scalar IntersectionExampleScenario.node[11].nic.mac1609_4 	ReceivedBroadcasts 	0
scalar IntersectionExampleScenario.node[11].nic.mac1609_4 	SentPackets 	0
scalar IntersectionExampleScenario.node[11].nic.mac1609_4 	SNIRLostPackets 	0
scalar IntersectionExampleScenario.node[11].nic.mac1609_4 	RXTXLostPackets 	0
scalar IntersectionExampleScenario.node[11].nic.mac1609_4 	TotalLostPackets 	0
scalar IntersectionExampleScenario.node[11].nic.mac1609_4 	DroppedPacketsInMac 	0
scalar IntersectionExampleScenario.node[11].nic.mac1609_4 	TooLittleTime 	0
scalar IntersectionExampleScenario.node[11].nic.mac1609_4 	TimesIntoBackoff 	0
scalar IntersectionExampleScenario.node[11].nic.mac1609_4 	SlotsBackoff 	0
scalar IntersectionExampleScenario.node[11].nic.mac1609_4 	NumInternalContention 	0
scalar IntersectionExampleScenario.node[11].nic.mac1609_4 	totalBusyTime 	0
scalar IntersectionExampleScenario.node[11].veinsmobility 	startTime 	30.25
scalar IntersectionExampleScenario.node[11].veinsmobility 	totalTime 	48.25
scalar IntersectionExampleScenario.node[11].veinsmobility 	stopTime 	78.75
scalar IntersectionExampleScenario.node[11].veinsmobility 	minSpeed 	4.8414492607117
scalar IntersectionExampleScenario.node[11].veinsmobility 	maxSpeed 	14.741956710815
scalar IntersectionExampleScenario.node[11].veinsmobility 	totalDistance 	568.70793151855
scalar IntersectionExampleScenario.node[11].veinsmobility 	totalCO2Emission 	136.5608991224
scalar IntersectionExampleScenario.node[12].appl 	VehicleRemoved 	0
scalar IntersectionExampleScenario.node[12].appl 	ArrivedAtDest 	1
scalar IntersectionExampleScenario.node[12].appl 	IntersectionEnterTime 	30.75
scalar IntersectionExampleScenario.node[12].appl 	IntersectionExitTime 	63.51309440739
scalar IntersectionExampleScenario.node[12].appl 	NumberOfCollisions 	0
scalar IntersectionExampleScenario.node[12].nic.phy80211p 	busyTime 	0
scalar IntersectionExampleScenario.node[12].nic.mac1609_4 	ReceivedUnicastPackets 	0
scalar IntersectionExampleScenario.node[12].nic.mac1609_4 	ReceivedBroadcasts 	0
scalar IntersectionExampleScenario.node[12].nic.mac1609_4 	SentPackets 	0
scalar IntersectionExampleScenario.node[12].nic.mac1609_4 	SNIRLostPackets 	0
scalar IntersectionExampleScenario.node[12].nic.mac1609_4 	RXTXLostPackets 	0
scalar IntersectionExampleScenario.node[12].nic.mac1609_4 	TotalLostPackets 	0
scalar IntersectionExampleScenario.node[12].nic.mac1609_4 	DroppedPacketsInMac 	0
scalar IntersectionExampleScenario.node[12].nic.mac1609_4 	TooLittleTime 	0
scalar IntersectionExampleScenario.node[12].nic.mac1609_4 	TimesIntoBackoff 	0
scalar IntersectionExampleScenario.node[12].nic.mac1609_4 	SlotsBackoff 	0
scalar IntersectionExampleScenario.node[12].nic.mac1609_4 	NumInternalContention 	0
scalar IntersectionExampleScenario.node[12].nic.mac1609_4 	totalBusyTime 	0
scalar IntersectionExampleScenario.node[12].veinsmobility 	startTime 	30.75
scalar IntersectionExampleScenario.node[12].veinsmobility 	totalTime 	48.75
scalar IntersectionExampleScenario.node[12].veinsmobility 	stopTime 	79.75
scalar IntersectionExampleScenario.node[12].veinsmobility 	minSpeed 	5.6500000953674
scalar IntersectionExampleScenario.node[12].veinsmobility 	maxSpeed 	16.016189575195
scalar IntersectionExampleScenario.node[12].veinsmobility 	totalDistance 	583.05660247803
scalar IntersectionExampleScenario.node[12].veinsmobility 	totalCO2Emission 	145.88460195485
scalar IntersectionExampleScenario.node[15].appl 	VehicleRemoved 	0
scalar IntersectionExampleScenario.node[15].appl 	ArrivedAtDest 	1
scalar IntersectionExampleScenario.node[15].appl 	IntersectionEnterTime 	33.75
scalar IntersectionExampleScenario.node[15].appl 	IntersectionExitTime 	65.614144944935
scalar IntersectionExampleScenario.node[15].appl 	NumberOfCollisions 	0
scalar IntersectionExampleScenario.node[15].nic.phy80211p 	busyTime 	0
scalar IntersectionExampleScenario.node[15].nic.mac1609_4 	ReceivedUnicastPackets 	0
scalar IntersectionExampleScenario.node[15].nic.mac1609_4 	ReceivedBroadcasts 	0
scalar IntersectionExampleScenario.node[15].nic.mac1609_4 	SentPackets 	0
scalar IntersectionExampleScenario.node[15].nic.mac1609_4 	SNIRLostPackets 	0
scalar IntersectionExampleScenario.node[15].nic.mac1609_4 	RXTXLostPackets 	0
scalar IntersectionExampleScenario.node[15].nic.mac1609_4 	TotalLostPackets 	0
scalar IntersectionExampleScenario.node[15].nic.mac1609_4 	DroppedPacketsInMac 	0
scalar IntersectionExampleScenario.node[15].nic.mac1609_4 	TooLittleTime 	0
scalar IntersectionExampleScenario.node[15].nic.mac1609_4 	TimesIntoBackoff 	0
scalar IntersectionExampleScenario.node[15].nic.mac1609_4 	SlotsBackoff 	0
scalar IntersectionExampleScenario.node[15].nic.mac1609_4 	NumInternalContention 	0
scalar IntersectionExampleScenario.node[15].nic.mac1609_4 	totalBusyTime 	0
scalar IntersectionExampleScenario.node[15].veinsmobility 	startTime 	33.75
scalar IntersectionExampleScenario.node[15].veinsmobility 	totalTime 	48.25
scalar IntersectionExampleScenario.node[15].veinsmobility 	stopTime 	82.25
scalar IntersectionExampleScenario.node[15].veinsmobility 	minSpeed 	5.6500000953674
scalar IntersectionExampleScenario.node[15].veinsmobility 	maxSpeed 	15.875
scalar IntersectionExampleScenario.node[15].veinsmobility 	totalDistance 	574.96732843105
scalar IntersectionExampleScenario.node[15].veinsmobility 	totalCO2Emission 	147.70069028183
scalar IntersectionExampleScenario.node[9].appl 	VehicleRemoved 	0
scalar IntersectionExampleScenario.node[9].appl 	ArrivedAtDest 	1
scalar IntersectionExampleScenario.node[9].appl 	IntersectionEnterTime 	26
scalar IntersectionExampleScenario.node[9].appl 	IntersectionExitTime 	68.543281303282
scalar IntersectionExampleScenario.node[9].appl 	NumberOfCollisions 	0
scalar IntersectionExampleScenario.node[9].nic.phy80211p 	busyTime 	0
scalar IntersectionExampleScenario.node[9].nic.mac1609_4 	ReceivedUnicastPackets 	0
scalar IntersectionExampleScenario.node[9].nic.mac1609_4 	ReceivedBroadcasts 	0
scalar IntersectionExampleScenario.node[9].nic.mac1609_4 	SentPackets 	0
scalar IntersectionExampleScenario.node[9].nic.mac1609_4 	SNIRLostPackets 	0
scalar IntersectionExampleScenario.node[9].nic.mac1609_4 	RXTXLostPackets 	0
scalar IntersectionExampleScenario.node[9].nic.mac1609_4 	TotalLostPackets 	0
scalar IntersectionExampleScenario.node[9].nic.mac1609_4 	DroppedPacketsInMac 	0
scalar IntersectionExampleScenario.node[9].nic.mac1609_4 	TooLittleTime 	0
scalar IntersectionExampleScenario.node[9].nic.mac1609_4 	TimesIntoBackoff 	0
scalar IntersectionExampleScenario.node[9].nic.mac1609_4 	SlotsBackoff 	0
scalar IntersectionExampleScenario.node[9].nic.mac1609_4 	NumInternalContention 	0
scalar IntersectionExampleScenario.node[9].nic.mac1609_4 	totalBusyTime 	0
scalar IntersectionExampleScenario.node[9].veinsmobility 	startTime 	26
scalar IntersectionExampleScenario.node[9].veinsmobility 	totalTime 	59.5
scalar IntersectionExampleScenario.node[9].veinsmobility 	stopTime 	85.75
scalar IntersectionExampleScenario.node[9].veinsmobility 	minSpeed 	0
scalar IntersectionExampleScenario.node[9].veinsmobility 	maxSpeed 	14.753098487854
scalar IntersectionExampleScenario.node[9].veinsmobility 	totalDistance 	555.04316711426
scalar IntersectionExampleScenario.node[9].veinsmobility 	totalCO2Emission 	144.90022399903
scalar IntersectionExampleScenario.node[14].appl 	VehicleRemoved 	0
scalar IntersectionExampleScenario.node[14].appl 	ArrivedAtDest 	1
scalar IntersectionExampleScenario.node[14].appl 	IntersectionEnterTime 	33.5
scalar IntersectionExampleScenario.node[14].appl 	IntersectionExitTime 	69.326537769841
scalar IntersectionExampleScenario.node[14].appl 	NumberOfCollisions 	0
scalar IntersectionExampleScenario.node[14].nic.phy80211p 	busyTime 	0
scalar IntersectionExampleScenario.node[14].nic.mac1609_4 	ReceivedUnicastPackets 	0
scalar IntersectionExampleScenario.node[14].nic.mac1609_4 	ReceivedBroadcasts 	0
scalar IntersectionExampleScenario.node[14].nic.mac1609_4 	SentPackets 	0
scalar IntersectionExampleScenario.node[14].nic.mac1609_4 	SNIRLostPackets 	0
scalar IntersectionExampleScenario.node[14].nic.mac1609_4 	RXTXLostPackets 	0
scalar IntersectionExampleScenario.node[14].nic.mac1609_4 	TotalLostPackets 	0
scalar IntersectionExampleScenario.node[14].nic.mac1609_4 	DroppedPacketsInMac 	0
scalar IntersectionExampleScenario.node[14].nic.mac1609_4 	TooLittleTime 	0
scalar IntersectionExampleScenario.node[14].nic.mac1609_4 	TimesIntoBackoff 	0
scalar IntersectionExampleScenario.node[14].nic.mac1609_4 	SlotsBackoff 	0
scalar IntersectionExampleScenario.node[14].nic.mac1609_4 	NumInternalContention 	0
scalar IntersectionExampleScenario.node[14].nic.mac1609_4 	totalBusyTime 	0
scalar IntersectionExampleScenario.node[14].veinsmobility 	startTime 	33.5
scalar IntersectionExampleScenario.node[14].veinsmobility 	totalTime 	52.5
scalar IntersectionExampleScenario.node[14].veinsmobility 	stopTime 	86.25
scalar IntersectionExampleScenario.node[14].veinsmobility 	minSpeed 	0
scalar IntersectionExampleScenario.node[14].veinsmobility 	maxSpeed 	15.25
scalar IntersectionExampleScenario.node[14].veinsmobility 	totalDistance 	543.85739681971
scalar IntersectionExampleScenario.node[14].veinsmobility 	totalCO2Emission 	138.95895167287
scalar IntersectionExampleScenario.node[16].appl 	VehicleRemoved 	0
scalar IntersectionExampleScenario.node[16].appl 	ArrivedAtDest 	1
scalar IntersectionExampleScenario.node[16].appl 	IntersectionEnterTime 	36
scalar IntersectionExampleScenario.node[16].appl 	IntersectionExitTime 	71.578293548548
scalar IntersectionExampleScenario.node[16].appl 	NumberOfCollisions 	0
scalar IntersectionExampleScenario.node[16].nic.phy80211p 	busyTime 	0
scalar IntersectionExampleScenario.node[16].nic.mac1609_4 	ReceivedUnicastPackets 	0
scalar IntersectionExampleScenario.node[16].nic.mac1609_4 	ReceivedBroadcasts 	0
scalar IntersectionExampleScenario.node[16].nic.mac1609_4 	SentPackets 	0
scalar IntersectionExampleScenario.node[16].nic.mac1609_4 	SNIRLostPackets 	0
scalar IntersectionExampleScenario.node[16].nic.mac1609_4 	RXTXLostPackets 	0
scalar IntersectionExampleScenario.node[16].nic.mac1609_4 	TotalLostPackets 	0
scalar IntersectionExampleScenario.node[16].nic.mac1609_4 	DroppedPacketsInMac 	0
scalar IntersectionExampleScenario.node[16].nic.mac1609_4 	TooLittleTime 	0
scalar IntersectionExampleScenario.node[16].nic.mac1609_4 	TimesIntoBackoff 	0
scalar IntersectionExampleScenario.node[16].nic.mac1609_4 	SlotsBackoff 	0
scalar IntersectionExampleScenario.node[16].nic.mac1609_4 	NumInternalContention 	0
scalar IntersectionExampleScenario.node[16].nic.mac1609_4 	totalBusyTime 	0
scalar IntersectionExampleScenario.node[16].veinsmobility 	startTime 	36
scalar IntersectionExampleScenario.node[16].veinsmobility 	totalTime 	51.75
scalar IntersectionExampleScenario.node[16].veinsmobility 	stopTime 	88
scalar IntersectionExampleScenario.node[16].veinsmobility 	minSpeed 	2.1401658058167
scalar IntersectionExampleScenario.node[16].veinsmobility 	maxSpeed 	15.64999961853
scalar IntersectionExampleScenario.node[16].veinsmobility 	totalDistance 	566.04888730095
scalar IntersectionExampleScenario.node[16].veinsmobility 	totalCO2Emission 	144.15666401667
scalar IntersectionExampleScenario.node[24].appl 	VehicleRemoved 	0
scalar IntersectionExampleScenario.node[24].appl 	ArrivedAtDest 	1
scalar IntersectionExampleScenario.node[24].appl 	IntersectionEnterTime 	53.5
scalar IntersectionExampleScenario.node[24].appl 	IntersectionExitTime 	76.514635938714
scalar IntersectionExampleScenario.node[24].appl 	NumberOfCollisions 	0
scalar IntersectionExampleScenario.node[24].nic.phy80211p 	busyTime 	0
scalar IntersectionExampleScenario.node[24].nic.mac1609_4 	ReceivedUnicastPackets 	0
scalar IntersectionExampleScenario.node[24].nic.mac1609_4 	ReceivedBroadcasts 	0
scalar IntersectionExampleScenario.node[24].nic.mac1609_4 	SentPackets 	0
scalar IntersectionExampleScenario.node[24].nic.mac1609_4 	SNIRLostPackets 	0
scalar IntersectionExampleScenario.node[24].nic.mac1609_4 	RXTXLostPackets 	0
scalar IntersectionExampleScenario.node[24].nic.mac1609_4 	TotalLostPackets 	0
scalar IntersectionExampleScenario.node[24].nic.mac1609_4 	DroppedPacketsInMac 	0
scalar IntersectionExampleScenario.node[24].nic.mac1609_4 	TooLittleTime 	0
scalar IntersectionExampleScenario.node[24].nic.mac1609_4 	TimesIntoBackoff 	0
scalar IntersectionExampleScenario.node[24].nic.mac1609_4 	SlotsBackoff 	0
scalar IntersectionExampleScenario.node[24].nic.mac1609_4 	NumInternalContention 	0
scalar IntersectionExampleScenario.node[24].nic.mac1609_4 	totalBusyTime 	0
scalar IntersectionExampleScenario.node[24].veinsmobility 	startTime 	53.5
scalar IntersectionExampleScenario.node[24].veinsmobility 	totalTime 	39.25
scalar IntersectionExampleScenario.node[24].veinsmobility 	stopTime 	93
scalar IntersectionExampleScenario.node[24].veinsmobility 	minSpeed 	5.6500000953674
scalar IntersectionExampleScenario.node[24].veinsmobility 	maxSpeed 	16.27499961853
scalar IntersectionExampleScenario.node[24].veinsmobility 	totalDistance 	543.02464509178
scalar IntersectionExampleScenario.node[24].veinsmobility 	totalCO2Emission 	132.53434966019
scalar IntersectionExampleScenario.node[17].appl 	VehicleRemoved 	0
scalar IntersectionExampleScenario.node[17].appl 	ArrivedAtDest 	1
scalar IntersectionExampleScenario.node[17].appl 	IntersectionEnterTime 	41.5
scalar IntersectionExampleScenario.node[17].appl 	IntersectionExitTime 	87.327185914794
scalar IntersectionExampleScenario.node[17].appl 	NumberOfCollisions 	0
scalar IntersectionExampleScenario.node[17].nic.phy80211p 	busyTime 	0
scalar IntersectionExampleScenario.node[17].nic.mac1609_4 	ReceivedUnicastPackets 	0
scalar IntersectionExampleScenario.node[17].nic.mac1609_4 	ReceivedBroadcasts 	0
scalar IntersectionExampleScenario.node[17].nic.mac1609_4 	SentPackets 	0
scalar IntersectionExampleScenario.node[17].nic.mac1609_4 	SNIRLostPackets 	0
scalar IntersectionExampleScenario.node[17].nic.mac1609_4 	RXTXLostPackets 	0
scalar IntersectionExampleScenario.node[17].nic.mac1609_4 	TotalLostPackets 	0
scalar IntersectionExampleScenario.node[17].nic.mac1609_4 	DroppedPacketsInMac 	0
scalar IntersectionExampleScenario.node[17].nic.mac1609_4 	TooLittleTime 	0
scalar IntersectionExampleScenario.node[17].nic.mac1609_4 	TimesIntoBackoff 	0
scalar IntersectionExampleScenario.node[17].nic.mac1609_4 	SlotsBackoff 	0
scalar IntersectionExampleScenario.node[17].nic.mac1609_4 	NumInternalContention 	0
scalar IntersectionExampleScenario.node[17].nic.mac1609_4 	totalBusyTime 	0
scalar IntersectionExampleScenario.node[17].veinsmobility 	startTime 	41.5
scalar IntersectionExampleScenario.node[17].veinsmobility 	totalTime 	61.25
scalar IntersectionExampleScenario.node[17].veinsmobility 	stopTime 	103
scalar IntersectionExampleScenario.node[17].veinsmobility 	minSpeed 	0
scalar IntersectionExampleScenario.node[17].veinsmobility 	maxSpeed 	16
scalar IntersectionExampleScenario.node[17].veinsmobility 	totalDistance 	548.61677660098
scalar IntersectionExampleScenario.node[17].veinsmobility 	totalCO2Emission 	159.6169245054
scalar IntersectionExampleScenario.node[21].appl 	VehicleRemoved 	0
scalar IntersectionExampleScenario.node[21].appl 	ArrivedAtDest 	1
scalar IntersectionExampleScenario.node[21].appl 	IntersectionEnterTime 	50.5
scalar IntersectionExampleScenario.node[21].appl 	IntersectionExitTime 	87.27021477907
scalar IntersectionExampleScenario.node[21].appl 	NumberOfCollisions 	0
scalar IntersectionExampleScenario.node[21].nic.phy80211p 	busyTime 	0
scalar IntersectionExampleScenario.node[21].nic.mac1609_4 	ReceivedUnicastPackets 	0
scalar IntersectionExampleScenario.node[21].nic.mac1609_4 	ReceivedBroadcasts 	0
scalar IntersectionExampleScenario.node[21].nic.mac1609_4 	SentPackets 	0
scalar IntersectionExampleScenario.node[21].nic.mac1609_4 	SNIRLostPackets 	0
scalar IntersectionExampleScenario.node[21].nic.mac1609_4 	RXTXLostPackets 	0
scalar IntersectionExampleScenario.node[21].nic.mac1609_4 	TotalLostPackets 	0
scalar IntersectionExampleScenario.node[21].nic.mac1609_4 	DroppedPacketsInMac 	0
scalar IntersectionExampleScenario.node[21].nic.mac1609_4 	TooLittleTime 	0
scalar IntersectionExampleScenario.node[21].nic.mac1609_4 	TimesIntoBackoff 	0
scalar IntersectionExampleScenario.node[21].nic.mac1609_4 	SlotsBackoff 	0
scalar IntersectionExampleScenario.node[21].nic.mac1609_4 	NumInternalContention 	0
scalar IntersectionExampleScenario.node[21].nic.mac1609_4 	totalBusyTime 	0
scalar IntersectionExampleScenario.node[21].veinsmobility 	startTime 	50.5
scalar IntersectionExampleScenario.node[21].veinsmobility 	totalTime 	52.75
scalar IntersectionExampleScenario.node[21].veinsmobility 	stopTime 	103.5
scalar IntersectionExampleScenario.node[21].veinsmobility 	minSpeed 	0
scalar IntersectionExampleScenario.node[21].veinsmobility 	maxSpeed 	15.64999961853
scalar IntersectionExampleScenario.node[21].veinsmobility 	totalDistance 	552.47970581055
scalar IntersectionExampleScenario.node[21].veinsmobility 	totalCO2Emission 	145.1437345165
scalar IntersectionExampleScenario.node[22].appl 	VehicleRemoved 	0
scalar IntersectionExampleScenario.node[22].appl 	ArrivedAtDest 	1
scalar IntersectionExampleScenario.node[22].appl 	IntersectionEnterTime 	51.75
scalar IntersectionExampleScenario.node[22].appl 	IntersectionExitTime 	89.286309718183
scalar IntersectionExampleScenario.node[22].appl 	NumberOfCollisions 	0
scalar IntersectionExampleScenario.node[22].nic.phy80211p 	busyTime 	0
scalar IntersectionExampleScenario.node[22].nic.mac1609_4 	ReceivedUnicastPackets 	0
scalar IntersectionExampleScenario.node[22].nic.mac1609_4 	ReceivedBroadcasts 	0
scalar IntersectionExampleScenario.node[22].nic.mac1609_4 	SentPackets 	0
scalar IntersectionExampleScenario.node[22].nic.mac1609_4 	SNIRLostPackets 	0
scalar IntersectionExampleScenario.node[22].nic.mac1609_4 	RXTXLostPackets 	0
scalar IntersectionExampleScenario.node[22].nic.mac1609_4 	TotalLostPackets 	0
scalar IntersectionExampleScenario.node[22].nic.mac1609_4 	DroppedPacketsInMac 	0
scalar IntersectionExampleScenario.node[22].nic.mac1609_4 	TooLittleTime 	0
scalar IntersectionExampleScenario.node[22].nic.mac1609_4 	TimesIntoBackoff 	0
scalar IntersectionExampleScenario.node[22].nic.mac1609_4 	SlotsBackoff 	0
scalar IntersectionExampleScenario.node[22].nic.mac1609_4 	NumInternalContention 	0
scalar IntersectionExampleScenario.node[22].nic.mac1609_4 	totalBusyTime 	0
scalar IntersectionExampleScenario.node[22].veinsmobility 	startTime 	51.75
scalar IntersectionExampleScenario.node[22].veinsmobility 	totalTime 	53
scalar IntersectionExampleScenario.node[22].veinsmobility 	stopTime 	105
scalar IntersectionExampleScenario.node[22].veinsmobility 	minSpeed 	0
scalar IntersectionExampleScenario.node[22].veinsmobility 	maxSpeed 	15.720445632935
scalar IntersectionExampleScenario.node[22].veinsmobility 	totalDistance 	572.66841125488
scalar IntersectionExampleScenario.node[22].veinsmobility 	totalCO2Emission 	150.18915955504
scalar IntersectionExampleScenario.node[20].appl 	VehicleRemoved 	0
scalar IntersectionExampleScenario.node[20].appl 	ArrivedAtDest 	1
scalar IntersectionExampleScenario.node[20].appl 	IntersectionEnterTime 	47.5
scalar IntersectionExampleScenario.node[20].appl 	IntersectionExitTime 	88.32284690332
scalar IntersectionExampleScenario.node[20].appl 	NumberOfCollisions 	0
scalar IntersectionExampleScenario.node[20].nic.phy80211p 	busyTime 	0
scalar IntersectionExampleScenario.node[20].nic.mac1609_4 	ReceivedUnicastPackets 	0
scalar IntersectionExampleScenario.node[20].nic.mac1609_4 	ReceivedBroadcasts 	0
scalar IntersectionExampleScenario.node[20].nic.mac1609_4 	SentPackets 	0
scalar IntersectionExampleScenario.node[20].nic.mac1609_4 	SNIRLostPackets 	0
scalar IntersectionExampleScenario.node[20].nic.mac1609_4 	RXTXLostPackets 	0
scalar IntersectionExampleScenario.node[20].nic.mac1609_4 	TotalLostPackets 	0
scalar IntersectionExampleScenario.node[20].nic.mac1609_4 	DroppedPacketsInMac 	0
scalar IntersectionExampleScenario.node[20].nic.mac1609_4 	TooLittleTime 	0
scalar IntersectionExampleScenario.node[20].nic.mac1609_4 	TimesIntoBackoff 	0
scalar IntersectionExampleScenario.node[20].nic.mac1609_4 	SlotsBackoff 	0
scalar IntersectionExampleScenario.node[20].nic.mac1609_4 	NumInternalContention 	0
scalar IntersectionExampleScenario.node[20].nic.mac1609_4 	totalBusyTime 	0
scalar IntersectionExampleScenario.node[20].veinsmobility 	startTime 	47.5
scalar IntersectionExampleScenario.node[20].veinsmobility 	totalTime 	57.75
scalar IntersectionExampleScenario.node[20].veinsmobility 	stopTime 	105.5
scalar IntersectionExampleScenario.node[20].veinsmobility 	minSpeed 	0
scalar IntersectionExampleScenario.node[20].veinsmobility 	maxSpeed 	14.741375923157
scalar IntersectionExampleScenario.node[20].veinsmobility 	totalDistance 	521.8151550293
scalar IntersectionExampleScenario.node[20].veinsmobility 	totalCO2Emission 	139.874229452
scalar IntersectionExampleScenario.node[18].appl 	VehicleRemoved 	0
scalar IntersectionExampleScenario.node[18].appl 	ArrivedAtDest 	1
scalar IntersectionExampleScenario.node[18].appl 	IntersectionEnterTime 	46
scalar IntersectionExampleScenario.node[18].appl 	IntersectionExitTime 	90.527225990052
scalar IntersectionExampleScenario.node[18].appl 	NumberOfCollisions 	0
scalar IntersectionExampleScenario.node[18].nic.phy80211p 	busyTime 	0
scalar IntersectionExampleScenario.node[18].nic.mac1609_4 	ReceivedUnicastPackets 	0
scalar IntersectionExampleScenario.node[18].nic.mac1609_4 	ReceivedBroadcasts 	0
scalar IntersectionExampleScenario.node[18].nic.mac1609_4 	SentPackets 	0
scalar IntersectionExampleScenario.node[18].nic.mac1609_4 	SNIRLostPackets 	0
scalar IntersectionExampleScenario.node[18].nic.mac1609_4 	RXTXLostPackets 	0
scalar IntersectionExampleScenario.node[18].nic.mac1609_4 	TotalLostPackets 	0
scalar IntersectionExampleScenario.node[18].nic.mac1609_4 	DroppedPacketsInMac 	0
scalar IntersectionExampleScenario.node[18].nic.mac1609_4 	TooLittleTime 	0
scalar IntersectionExampleScenario.node[18].nic.mac1609_4 	TimesIntoBackoff 	0
scalar IntersectionExampleScenario.node[18].nic.mac1609_4 	SlotsBackoff 	0
scalar IntersectionExampleScenario.node[18].nic.mac1609_4 	NumInternalContention 	0
scalar IntersectionExampleScenario.node[18].nic.mac1609_4 	totalBusyTime 	0
scalar IntersectionExampleScenario.node[18].veinsmobility 	startTime 	46
scalar IntersectionExampleScenario.node[18].veinsmobility 	totalTime 	60.25
scalar IntersectionExampleScenario.node[18].veinsmobility 	stopTime 	106.5
scalar IntersectionExampleScenario.node[18].veinsmobility 	minSpeed 	0
scalar IntersectionExampleScenario.node[18].veinsmobility 	maxSpeed 	17.125
scalar IntersectionExampleScenario.node[18].veinsmobility 	totalDistance 	546.24699000804
scalar IntersectionExampleScenario.node[18].veinsmobility 	totalCO2Emission 	160.80573294462
scalar IntersectionExampleScenario.node[25].appl 	VehicleRemoved 	0
scalar IntersectionExampleScenario.node[25].appl 	ArrivedAtDest 	1
scalar IntersectionExampleScenario.node[25].appl 	IntersectionEnterTime 	63.25
scalar IntersectionExampleScenario.node[25].appl 	IntersectionExitTime 	91.539455312479
scalar IntersectionExampleScenario.node[25].appl 	NumberOfCollisions 	0
scalar IntersectionExampleScenario.node[25].nic.phy80211p 	busyTime 	0
scalar IntersectionExampleScenario.node[25].nic.mac1609_4 	ReceivedUnicastPackets 	0
scalar IntersectionExampleScenario.node[25].nic.mac1609_4 	ReceivedBroadcasts 	0
scalar IntersectionExampleScenario.node[25].nic.mac1609_4 	SentPackets 	0
scalar IntersectionExampleScenario.node[25].nic.mac1609_4 	SNIRLostPackets 	0
scalar IntersectionExampleScenario.node[25].nic.mac1609_4 	RXTXLostPackets 	0
scalar IntersectionExampleScenario.node[25].nic.mac1609_4 	TotalLostPackets 	0
scalar IntersectionExampleScenario.node[25].nic.mac1609_4 	DroppedPacketsInMac 	0
scalar IntersectionExampleScenario.node[25].nic.mac1609_4 	TooLittleTime 	0
scalar IntersectionExampleScenario.node[25].nic.mac1609_4 	TimesIntoBackoff 	0
scalar IntersectionExampleScenario.node[25].nic.mac1609_4 	SlotsBackoff 	0
scalar IntersectionExampleScenario.node[25].nic.mac1609_4 	NumInternalContention 	0
scalar IntersectionExampleScenario.node[25].nic.mac1609_4 	totalBusyTime 	0
scalar IntersectionExampleScenario.node[25].veinsmobility 	startTime 	63.25
scalar IntersectionExampleScenario.node[25].veinsmobility 	totalTime 	46
scalar IntersectionExampleScenario.node[25].veinsmobility 	stopTime 	109.5
scalar IntersectionExampleScenario.node[25].veinsmobility 	minSpeed 	5.1844410896301
scalar IntersectionExampleScenario.node[25].veinsmobility 	maxSpeed 	15.371278762817
scalar IntersectionExampleScenario.node[25].veinsmobility 	totalDistance 	551.87395575426
scalar IntersectionExampleScenario.node[25].veinsmobility 	totalCO2Emission 	138.44850942676
scalar IntersectionExampleScenario.node[19].appl 	VehicleRemoved 	0
scalar IntersectionExampleScenario.node[19].appl 	ArrivedAtDest 	1
scalar IntersectionExampleScenario.node[19].appl 	IntersectionEnterTime 	46.75
scalar IntersectionExampleScenario.node[19].appl 	IntersectionExitTime 	93.2517409547
scalar IntersectionExampleScenario.node[19].appl 	NumberOfCollisions 	0
scalar IntersectionExampleScenario.node[19].nic.phy80211p 	busyTime 	0
scalar IntersectionExampleScenario.node[19].nic.mac1609_4 	ReceivedUnicastPackets 	0
scalar IntersectionExampleScenario.node[19].nic.mac1609_4 	ReceivedBroadcasts 	0
scalar IntersectionExampleScenario.node[19].nic.mac1609_4 	SentPackets 	0
scalar IntersectionExampleScenario.node[19].nic.mac1609_4 	SNIRLostPackets 	0
scalar IntersectionExampleScenario.node[19].nic.mac1609_4 	RXTXLostPackets 	0
scalar IntersectionExampleScenario.node[19].nic.mac1609_4 	TotalLostPackets 	0
scalar IntersectionExampleScenario.node[19].nic.mac1609_4 	DroppedPacketsInMac 	0
scalar IntersectionExampleScenario.node[19].nic.mac1609_4 	TooLittleTime 	0
scalar IntersectionExampleScenario.node[19].nic.mac1609_4 	TimesIntoBackoff 	0
scalar IntersectionExampleScenario.node[19].nic.mac1609_4 	SlotsBackoff 	0
scalar IntersectionExampleScenario.node[19].nic.mac1609_4 	NumInternalContention 	0
scalar IntersectionExampleScenario.node[19].nic.mac1609_4 	totalBusyTime 	0
scalar IntersectionExampleScenario.node[19].veinsmobility 	startTime 	46.75
scalar IntersectionExampleScenario.node[19].veinsmobility 	totalTime 	63.25
scalar IntersectionExampleScenario.node[19].veinsmobility 	stopTime 	110.25
scalar IntersectionExampleScenario.node[19].veinsmobility 	minSpeed 	0
scalar IntersectionExampleScenario.node[19].veinsmobility 	maxSpeed 	14.926755905151
scalar IntersectionExampleScenario.node[19].veinsmobility 	totalDistance 	576.50873565674
scalar IntersectionExampleScenario.node[19].veinsmobility 	totalCO2Emission 	151.73389315667
scalar IntersectionExampleScenario.node[23].appl 	VehicleRemoved 	0
scalar IntersectionExampleScenario.node[23].appl 	ArrivedAtDest 	1
scalar IntersectionExampleScenario.node[23].appl 	IntersectionEnterTime 	53.5
scalar IntersectionExampleScenario.node[23].appl 	IntersectionExitTime 	95.253230605187
scalar IntersectionExampleScenario.node[23].appl 	NumberOfCollisions 	0
scalar IntersectionExampleScenario.node[23].nic.phy80211p 	busyTime 	0
scalar IntersectionExampleScenario.node[23].nic.mac1609_4 	ReceivedUnicastPackets 	0
scalar IntersectionExampleScenario.node[23].nic.mac1609_4 	ReceivedBroadcasts 	0
scalar IntersectionExampleScenario.node[23].nic.mac1609_4 	SentPackets 	0
scalar IntersectionExampleScenario.node[23].nic.mac1609_4 	SNIRLostPackets 	0
scalar IntersectionExampleScenario.node[23].nic.mac1609_4 	RXTXLostPackets 	0
scalar IntersectionExampleScenario.node[23].nic.mac1609_4 	TotalLostPackets 	0
scalar IntersectionExampleScenario.node[23].nic.mac1609_4 	DroppedPacketsInMac 	0
scalar IntersectionExampleScenario.node[23].nic.mac1609_4 	TooLittleTime 	0
scalar IntersectionExampleScenario.node[23].nic.mac1609_4 	TimesIntoBackoff 	0
scalar IntersectionExampleScenario.node[23].nic.mac1609_4 	SlotsBackoff 	0
scalar IntersectionExampleScenario.node[23].nic.mac1609_4 	NumInternalContention 	0
scalar IntersectionExampleScenario.node[23].nic.mac1609_4 	totalBusyTime 	0
scalar IntersectionExampleScenario.node[23].veinsmobility 	startTime 	53.5
scalar IntersectionExampleScenario.node[23].veinsmobility 	totalTime 	57.75
scalar IntersectionExampleScenario.node[23].veinsmobility 	stopTime 	111.5
scalar IntersectionExampleScenario.node[23].veinsmobility 	minSpeed 	0
scalar IntersectionExampleScenario.node[23].veinsmobility 	maxSpeed 	15.903037071228
scalar IntersectionExampleScenario.node[23].veinsmobility 	totalDistance 	560.31873321533
scalar IntersectionExampleScenario.node[23].veinsmobility 	totalCO2Emission 	154.57095633818
scalar IntersectionExampleScenario.node[26].appl 	VehicleRemoved 	0
scalar IntersectionExampleScenario.node[26].appl 	ArrivedAtDest 	1
scalar IntersectionExampleScenario.node[26].appl 	IntersectionEnterTime 	72.25
scalar IntersectionExampleScenario.node[26].appl 	IntersectionExitTime 	98.268950786529
scalar IntersectionExampleScenario.node[26].appl 	NumberOfCollisions 	0
scalar IntersectionExampleScenario.node[26].nic.phy80211p 	busyTime 	0
scalar IntersectionExampleScenario.node[26].nic.mac1609_4 	ReceivedUnicastPackets 	0
scalar IntersectionExampleScenario.node[26].nic.mac1609_4 	ReceivedBroadcasts 	0
scalar IntersectionExampleScenario.node[26].nic.mac1609_4 	SentPackets 	0
scalar IntersectionExampleScenario.node[26].nic.mac1609_4 	SNIRLostPackets 	0
scalar IntersectionExampleScenario.node[26].nic.mac1609_4 	RXTXLostPackets 	0
scalar IntersectionExampleScenario.node[26].nic.mac1609_4 	TotalLostPackets 	0
scalar IntersectionExampleScenario.node[26].nic.mac1609_4 	DroppedPacketsInMac 	0
scalar IntersectionExampleScenario.node[26].nic.mac1609_4 	TooLittleTime 	0
scalar IntersectionExampleScenario.node[26].nic.mac1609_4 	TimesIntoBackoff 	0
scalar IntersectionExampleScenario.node[26].nic.mac1609_4 	SlotsBackoff 	0
scalar IntersectionExampleScenario.node[26].nic.mac1609_4 	NumInternalContention 	0
scalar IntersectionExampleScenario.node[26].nic.mac1609_4 	totalBusyTime 	0
scalar IntersectionExampleScenario.node[26].veinsmobility 	startTime 	72.25
scalar IntersectionExampleScenario.node[26].veinsmobility 	totalTime 	43
scalar IntersectionExampleScenario.node[26].veinsmobility 	stopTime 	115.5
scalar IntersectionExampleScenario.node[26].veinsmobility 	minSpeed 	5.6500000953674
scalar IntersectionExampleScenario.node[26].veinsmobility 	maxSpeed 	15.25
scalar IntersectionExampleScenario.node[26].veinsmobility 	totalDistance 	546.08842880429
scalar IntersectionExampleScenario.node[26].veinsmobility 	totalCO2Emission 	133.11904883459
scalar IntersectionExampleScenario.node[30].appl 	VehicleRemoved 	0
scalar IntersectionExampleScenario.node[30].appl 	ArrivedAtDest 	1
scalar IntersectionExampleScenario.node[30].appl 	IntersectionEnterTime 	81
scalar IntersectionExampleScenario.node[30].appl 	IntersectionExitTime 	104.59336201142
scalar IntersectionExampleScenario.node[30].appl 	NumberOfCollisions 	0
scalar IntersectionExampleScenario.node[30].nic.phy80211p 	busyTime 	0
scalar IntersectionExampleScenario.node[30].nic.mac1609_4 	ReceivedUnicastPackets 	0
scalar IntersectionExampleScenario.node[30].nic.mac1609_4 	ReceivedBroadcasts 	0
scalar IntersectionExampleScenario.node[30].nic.mac1609_4 	SentPackets 	0
scalar IntersectionExampleScenario.node[30].nic.mac1609_4 	SNIRLostPackets 	0
scalar IntersectionExampleScenario.node[30].nic.mac1609_4 	RXTXLostPackets 	0
scalar IntersectionExampleScenario.node[30].nic.mac1609_4 	TotalLostPackets 	0
scalar IntersectionExampleScenario.node[30].nic.mac1609_4 	DroppedPacketsInMac 	0
scalar IntersectionExampleScenario.node[30].nic.mac1609_4 	TooLittleTime 	0
scalar IntersectionExampleScenario.node[30].nic.mac1609_4 	TimesIntoBackoff 	0
scalar IntersectionExampleScenario.node[30].nic.mac1609_4 	SlotsBackoff 	0
scalar IntersectionExampleScenario.node[30].nic.mac1609_4 	NumInternalContention 	0
scalar IntersectionExampleScenario.node[30].nic.mac1609_4 	totalBusyTime 	0
scalar IntersectionExampleScenario.node[30].veinsmobility 	startTime 	81
scalar IntersectionExampleScenario.node[30].veinsmobility 	totalTime 	40
scalar IntersectionExampleScenario.node[30].veinsmobility 	stopTime 	121.25
scalar IntersectionExampleScenario.node[30].veinsmobility 	minSpeed 	5.6500000953674
scalar IntersectionExampleScenario.node[30].veinsmobility 	maxSpeed 	15.375
scalar IntersectionExampleScenario.node[30].veinsmobility 	totalDistance 	550.34830487497
scalar IntersectionExampleScenario.node[30].veinsmobility 	totalCO2Emission 	121.11181003779
scalar IntersectionExampleScenario.node[33].appl 	VehicleRemoved 	0
scalar IntersectionExampleScenario.node[33].appl 	ArrivedAtDest 	1
scalar IntersectionExampleScenario.node[33].appl 	IntersectionEnterTime 	92
scalar IntersectionExampleScenario.node[33].appl 	IntersectionExitTime 	115.0260965577
scalar IntersectionExampleScenario.node[33].appl 	NumberOfCollisions 	0
scalar IntersectionExampleScenario.node[33].nic.phy80211p 	busyTime 	0
scalar IntersectionExampleScenario.node[33].nic.mac1609_4 	ReceivedUnicastPackets 	0
scalar IntersectionExampleScenario.node[33].nic.mac1609_4 	ReceivedBroadcasts 	0
scalar IntersectionExampleScenario.node[33].nic.mac1609_4 	SentPackets 	0
scalar IntersectionExampleScenario.node[33].nic.mac1609_4 	SNIRLostPackets 	0
scalar IntersectionExampleScenario.node[33].nic.mac1609_4 	RXTXLostPackets 	0
scalar IntersectionExampleScenario.node[33].nic.mac1609_4 	TotalLostPackets 	0
scalar IntersectionExampleScenario.node[33].nic.mac1609_4 	DroppedPacketsInMac 	0
scalar IntersectionExampleScenario.node[33].nic.mac1609_4 	TooLittleTime 	0
scalar IntersectionExampleScenario.node[33].nic.mac1609_4 	TimesIntoBackoff 	0
scalar IntersectionExampleScenario.node[33].nic.mac1609_4 	SlotsBackoff 	0
scalar IntersectionExampleScenario.node[33].nic.mac1609_4 	NumInternalContention 	0
scalar IntersectionExampleScenario.node[33].nic.mac1609_4 	totalBusyTime 	0
scalar IntersectionExampleScenario.node[33].veinsmobility 	startTime 	92
scalar IntersectionExampleScenario.node[33].veinsmobility 	totalTime 	39.25
scalar IntersectionExampleScenario.node[33].veinsmobility 	stopTime 	131.5
scalar IntersectionExampleScenario.node[33].veinsmobility 	minSpeed 	5.6500000953674
scalar IntersectionExampleScenario.node[33].veinsmobility 	maxSpeed 	15.5
scalar IntersectionExampleScenario.node[33].veinsmobility 	totalDistance 	552.04502105713
scalar IntersectionExampleScenario.node[33].veinsmobility 	totalCO2Emission 	116.05476691069
scalar IntersectionExampleScenario.node[29].appl 	VehicleRemoved 	0
scalar IntersectionExampleScenario.node[29].appl 	ArrivedAtDest 	1
scalar IntersectionExampleScenario.node[29].appl 	IntersectionEnterTime 	78.5
scalar IntersectionExampleScenario.node[29].appl 	IntersectionExitTime 	119.28709720363
scalar IntersectionExampleScenario.node[29].appl 	NumberOfCollisions 	0
scalar IntersectionExampleScenario.node[29].nic.phy80211p 	busyTime 	0
scalar IntersectionExampleScenario.node[29].nic.mac1609_4 	ReceivedUnicastPackets 	0
scalar IntersectionExampleScenario.node[29].nic.mac1609_4 	ReceivedBroadcasts 	0
scalar IntersectionExampleScenario.node[29].nic.mac1609_4 	SentPackets 	0
scalar IntersectionExampleScenario.node[29].nic.mac1609_4 	SNIRLostPackets 	0
scalar IntersectionExampleScenario.node[29].nic.mac1609_4 	RXTXLostPackets 	0
scalar IntersectionExampleScenario.node[29].nic.mac1609_4 	TotalLostPackets 	0
scalar IntersectionExampleScenario.node[29].nic.mac1609_4 	DroppedPacketsInMac 	0
scalar IntersectionExampleScenario.node[29].nic.mac1609_4 	TooLittleTime 	0
scalar IntersectionExampleScenario.node[29].nic.mac1609_4 	TimesIntoBackoff 	0
scalar IntersectionExampleScenario.node[29].nic.mac1609_4 	SlotsBackoff 	0
scalar IntersectionExampleScenario.node[29].nic.mac1609_4 	NumInternalContention 	0
scalar IntersectionExampleScenario.node[29].nic.mac1609_4 	totalBusyTime 	0
scalar IntersectionExampleScenario.node[29].veinsmobility 	startTime 	78.5
scalar IntersectionExampleScenario.node[29].veinsmobility 	totalTime 	56.75
scalar IntersectionExampleScenario.node[29].veinsmobility 	stopTime 	135.5
scalar IntersectionExampleScenario.node[29].veinsmobility 	minSpeed 	0
scalar IntersectionExampleScenario.node[29].veinsmobility 	maxSpeed 	15.64999961853
scalar IntersectionExampleScenario.node[29].veinsmobility 	totalDistance 	553.04893493652
scalar IntersectionExampleScenario.node[29].veinsmobility 	totalCO2Emission 	149.41822809001
scalar IntersectionExampleScenario.node[27].appl 	VehicleRemoved 	0
scalar IntersectionExampleScenario.node[27].appl 	ArrivedAtDest 	1
scalar IntersectionExampleScenario.node[27].appl 	IntersectionEnterTime 	72.75
scalar IntersectionExampleScenario.node[27].appl 	IntersectionExitTime 	119.26208118652
scalar IntersectionExampleScenario.node[27].appl 	NumberOfCollisions 	0
scalar IntersectionExampleScenario.node[27].nic.phy80211p 	busyTime 	0
scalar IntersectionExampleScenario.node[27].nic.mac1609_4 	ReceivedUnicastPackets 	0
scalar IntersectionExampleScenario.node[27].nic.mac1609_4 	ReceivedBroadcasts 	0
scalar IntersectionExampleScenario.node[27].nic.mac1609_4 	SentPackets 	0
scalar IntersectionExampleScenario.node[27].nic.mac1609_4 	SNIRLostPackets 	0
scalar IntersectionExampleScenario.node[27].nic.mac1609_4 	RXTXLostPackets 	0
scalar IntersectionExampleScenario.node[27].nic.mac1609_4 	TotalLostPackets 	0
scalar IntersectionExampleScenario.node[27].nic.mac1609_4 	DroppedPacketsInMac 	0
scalar IntersectionExampleScenario.node[27].nic.mac1609_4 	TooLittleTime 	0
scalar IntersectionExampleScenario.node[27].nic.mac1609_4 	TimesIntoBackoff 	0
scalar IntersectionExampleScenario.node[27].nic.mac1609_4 	SlotsBackoff 	0
scalar IntersectionExampleScenario.node[27].nic.mac1609_4 	NumInternalContention 	0
scalar IntersectionExampleScenario.node[27].nic.mac1609_4 	totalBusyTime 	0
scalar IntersectionExampleScenario.node[27].veinsmobility 	startTime 	72.75
scalar IntersectionExampleScenario.node[27].veinsmobility 	totalTime 	62.75
scalar IntersectionExampleScenario.node[27].veinsmobility 	stopTime 	135.75
scalar IntersectionExampleScenario.node[27].veinsmobility 	minSpeed 	0
scalar IntersectionExampleScenario.node[27].veinsmobility 	maxSpeed 	15.375
scalar IntersectionExampleScenario.node[27].veinsmobility 	totalDistance 	577.12281799316
scalar IntersectionExampleScenario.node[27].veinsmobility 	totalCO2Emission 	155.27384142855
scalar IntersectionExampleScenario.node[31].appl 	VehicleRemoved 	0
scalar IntersectionExampleScenario.node[31].appl 	ArrivedAtDest 	1
scalar IntersectionExampleScenario.node[31].appl 	IntersectionEnterTime 	85.5
scalar IntersectionExampleScenario.node[31].appl 	IntersectionExitTime 	120.25953304215
scalar IntersectionExampleScenario.node[31].appl 	NumberOfCollisions 	0
scalar IntersectionExampleScenario.node[31].nic.phy80211p 	busyTime 	0
scalar IntersectionExampleScenario.node[31].nic.mac1609_4 	ReceivedUnicastPackets 	0
scalar IntersectionExampleScenario.node[31].nic.mac1609_4 	ReceivedBroadcasts 	0
scalar IntersectionExampleScenario.node[31].nic.mac1609_4 	SentPackets 	0
scalar IntersectionExampleScenario.node[31].nic.mac1609_4 	SNIRLostPackets 	0
scalar IntersectionExampleScenario.node[31].nic.mac1609_4 	RXTXLostPackets 	0
scalar IntersectionExampleScenario.node[31].nic.mac1609_4 	TotalLostPackets 	0
scalar IntersectionExampleScenario.node[31].nic.mac1609_4 	DroppedPacketsInMac 	0
scalar IntersectionExampleScenario.node[31].nic.mac1609_4 	TooLittleTime 	0
scalar IntersectionExampleScenario.node[31].nic.mac1609_4 	TimesIntoBackoff 	0
scalar IntersectionExampleScenario.node[31].nic.mac1609_4 	SlotsBackoff 	0
scalar IntersectionExampleScenario.node[31].nic.mac1609_4 	NumInternalContention 	0
scalar IntersectionExampleScenario.node[31].nic.mac1609_4 	totalBusyTime 	0
scalar IntersectionExampleScenario.node[31].veinsmobility 	startTime 	85.5
scalar IntersectionExampleScenario.node[31].veinsmobility 	totalTime 	51
scalar IntersectionExampleScenario.node[31].veinsmobility 	stopTime 	136.75
scalar IntersectionExampleScenario.node[31].veinsmobility 	minSpeed 	0
scalar IntersectionExampleScenario.node[31].veinsmobility 	maxSpeed 	15.684454917908
scalar IntersectionExampleScenario.node[31].veinsmobility 	totalDistance 	542.92090129967
scalar IntersectionExampleScenario.node[31].veinsmobility 	totalCO2Emission 	141.70590252049
scalar IntersectionExampleScenario.node[28].appl 	VehicleRemoved 	0
scalar IntersectionExampleScenario.node[28].appl 	ArrivedAtDest 	1
scalar IntersectionExampleScenario.node[28].appl 	IntersectionEnterTime 	78
scalar IntersectionExampleScenario.node[28].appl 	IntersectionExitTime 	121.58497321617
scalar IntersectionExampleScenario.node[28].appl 	NumberOfCollisions 	0
scalar IntersectionExampleScenario.node[28].nic.phy80211p 	busyTime 	0
scalar IntersectionExampleScenario.node[28].nic.mac1609_4 	ReceivedUnicastPackets 	0
scalar IntersectionExampleScenario.node[28].nic.mac1609_4 	ReceivedBroadcasts 	0
scalar IntersectionExampleScenario.node[28].nic.mac1609_4 	SentPackets 	0
scalar IntersectionExampleScenario.node[28].nic.mac1609_4 	SNIRLostPackets 	0
scalar IntersectionExampleScenario.node[28].nic.mac1609_4 	RXTXLostPackets 	0
scalar IntersectionExampleScenario.node[28].nic.mac1609_4 	TotalLostPackets 	0
scalar IntersectionExampleScenario.node[28].nic.mac1609_4 	DroppedPacketsInMac 	0
scalar IntersectionExampleScenario.node[28].nic.mac1609_4 	TooLittleTime 	0
scalar IntersectionExampleScenario.node[28].nic.mac1609_4 	TimesIntoBackoff 	0
scalar IntersectionExampleScenario.node[28].nic.mac1609_4 	SlotsBackoff 	0
scalar IntersectionExampleScenario.node[28].nic.mac1609_4 	NumInternalContention 	0
scalar IntersectionExampleScenario.node[28].nic.mac1609_4 	totalBusyTime 	0
scalar IntersectionExampleScenario.node[28].veinsmobility 	startTime 	78
scalar IntersectionExampleScenario.node[28].veinsmobility 	totalTime 	59.5
scalar IntersectionExampleScenario.node[28].veinsmobility 	stopTime 	137.75
scalar IntersectionExampleScenario.node[28].veinsmobility 	minSpeed 	0
scalar IntersectionExampleScenario.node[28].veinsmobility 	maxSpeed 	15.385756492615
scalar IntersectionExampleScenario.node[28].veinsmobility 	totalDistance 	563.79768371582
scalar IntersectionExampleScenario.node[28].veinsmobility 	totalCO2Emission 	150.40577315852
scalar IntersectionExampleScenario.node[32].appl 	VehicleRemoved 	0
scalar IntersectionExampleScenario.node[32].appl 	ArrivedAtDest 	1
scalar IntersectionExampleScenario.node[32].appl 	IntersectionEnterTime 	89.5
scalar IntersectionExampleScenario.node[32].appl 	IntersectionExitTime 	122.11262369298
scalar IntersectionExampleScenario.node[32].appl 	NumberOfCollisions 	0
scalar IntersectionExampleScenario.node[32].nic.phy80211p 	busyTime 	0
scalar IntersectionExampleScenario.node[32].nic.mac1609_4 	ReceivedUnicastPackets 	0
scalar IntersectionExampleScenario.node[32].nic.mac1609_4 	ReceivedBroadcasts 	0
scalar IntersectionExampleScenario.node[32].nic.mac1609_4 	SentPackets 	0
scalar IntersectionExampleScenario.node[32].nic.mac1609_4 	SNIRLostPackets 	0
scalar IntersectionExampleScenario.node[32].nic.mac1609_4 	RXTXLostPackets 	0
scalar IntersectionExampleScenario.node[32].nic.mac1609_4 	TotalLostPackets 	0
scalar IntersectionExampleScenario.node[32].nic.mac1609_4 	DroppedPacketsInMac 	0
scalar IntersectionExampleScenario.node[32].nic.mac1609_4 	TooLittleTime 	0
scalar IntersectionExampleScenario.node[32].nic.mac1609_4 	TimesIntoBackoff 	0
scalar IntersectionExampleScenario.node[32].nic.mac1609_4 	SlotsBackoff 	0
scalar IntersectionExampleScenario.node[32].nic.mac1609_4 	NumInternalContention 	0
scalar IntersectionExampleScenario.node[32].nic.mac1609_4 	totalBusyTime 	0
scalar IntersectionExampleScenario.node[32].veinsmobility 	startTime 	89.5
scalar IntersectionExampleScenario.node[32].veinsmobility 	totalTime 	48.5
scalar IntersectionExampleScenario.node[32].veinsmobility 	stopTime 	138.25
scalar IntersectionExampleScenario.node[32].veinsmobility 	minSpeed 	2.5250291824341
scalar IntersectionExampleScenario.node[32].veinsmobility 	maxSpeed 	15.64999961853
scalar IntersectionExampleScenario.node[32].veinsmobility 	totalDistance 	560.97895812988
scalar IntersectionExampleScenario.node[32].veinsmobility 	totalCO2Emission 	138.67718347959
scalar IntersectionExampleScenario.node[37].appl 	VehicleRemoved 	0
scalar IntersectionExampleScenario.node[37].appl 	ArrivedAtDest 	1
scalar IntersectionExampleScenario.node[37].appl 	IntersectionEnterTime 	95.75
scalar IntersectionExampleScenario.node[37].appl 	IntersectionExitTime 	123.26381157406
scalar IntersectionExampleScenario.node[37].appl 	NumberOfCollisions 	0
scalar IntersectionExampleScenario.node[37].nic.phy80211p 	busyTime 	0
scalar IntersectionExampleScenario.node[37].nic.mac1609_4 	ReceivedUnicastPackets 	0
scalar IntersectionExampleScenario.node[37].nic.mac1609_4 	ReceivedBroadcasts 	0
scalar IntersectionExampleScenario.node[37].nic.mac1609_4 	SentPackets 	0
scalar IntersectionExampleScenario.node[37].nic.mac1609_4 	SNIRLostPackets 	0
scalar IntersectionExampleScenario.node[37].nic.mac1609_4 	RXTXLostPackets 	0
scalar IntersectionExampleScenario.node[37].nic.mac1609_4 	TotalLostPackets 	0
scalar IntersectionExampleScenario.node[37].nic.mac1609_4 	DroppedPacketsInMac 	0
scalar IntersectionExampleScenario.node[37].nic.mac1609_4 	TooLittleTime 	0
scalar IntersectionExampleScenario.node[37].nic.mac1609_4 	TimesIntoBackoff 	0
scalar IntersectionExampleScenario.node[37].nic.mac1609_4 	SlotsBackoff 	0
scalar IntersectionExampleScenario.node[37].nic.mac1609_4 	NumInternalContention 	0
scalar IntersectionExampleScenario.node[37].nic.mac1609_4 	totalBusyTime 	0
scalar IntersectionExampleScenario.node[37].veinsmobility 	startTime 	95.75
scalar IntersectionExampleScenario.node[37].veinsmobility 	totalTime 	44.75
scalar IntersectionExampleScenario.node[37].veinsmobility 	stopTime 	140.75
scalar IntersectionExampleScenario.node[37].veinsmobility 	minSpeed 	5.6500000953674
scalar IntersectionExampleScenario.node[37].veinsmobility 	maxSpeed 	15.02499961853
scalar IntersectionExampleScenario.node[37].veinsmobility 	totalDistance 	543.53208780046
scalar IntersectionExampleScenario.node[37].veinsmobility 	totalCO2Emission 	134.31729558737
scalar IntersectionExampleScenario.node[35].appl 	VehicleRemoved 	0
scalar IntersectionExampleScenario.node[35].appl 	ArrivedAtDest 	1
scalar IntersectionExampleScenario.node[35].appl 	IntersectionEnterTime 	93.25
scalar IntersectionExampleScenario.node[35].appl 	IntersectionExitTime 	124.60362738455
scalar IntersectionExampleScenario.node[35].appl 	NumberOfCollisions 	0
scalar IntersectionExampleScenario.node[35].nic.phy80211p 	busyTime 	0
scalar IntersectionExampleScenario.node[35].nic.mac1609_4 	ReceivedUnicastPackets 	0
scalar IntersectionExampleScenario.node[35].nic.mac1609_4 	ReceivedBroadcasts 	0
scalar IntersectionExampleScenario.node[35].nic.mac1609_4 	SentPackets 	0
scalar IntersectionExampleScenario.node[35].nic.mac1609_4 	SNIRLostPackets 	0
scalar IntersectionExampleScenario.node[35].nic.mac1609_4 	RXTXLostPackets 	0
scalar IntersectionExampleScenario.node[35].nic.mac1609_4 	TotalLostPackets 	0
scalar IntersectionExampleScenario.node[35].nic.mac1609_4 	DroppedPacketsInMac 	0
scalar IntersectionExampleScenario.node[35].nic.mac1609_4 	TooLittleTime 	0
scalar IntersectionExampleScenario.node[35].nic.mac1609_4 	TimesIntoBackoff 	0
scalar IntersectionExampleScenario.node[35].nic.mac1609_4 	SlotsBackoff 	0
scalar IntersectionExampleScenario.node[35].nic.mac1609_4 	NumInternalContention 	0
scalar IntersectionExampleScenario.node[35].nic.mac1609_4 	totalBusyTime 	0
scalar IntersectionExampleScenario.node[35].veinsmobility 	startTime 	93.25
scalar IntersectionExampleScenario.node[35].veinsmobility 	totalTime 	47.5
scalar IntersectionExampleScenario.node[35].veinsmobility 	stopTime 	141
scalar IntersectionExampleScenario.node[35].veinsmobility 	minSpeed 	3.0794804096222
scalar IntersectionExampleScenario.node[35].veinsmobility 	maxSpeed 	15.875
scalar IntersectionExampleScenario.node[35].veinsmobility 	totalDistance 	553.72949231472
scalar IntersectionExampleScenario.node[35].veinsmobility 	totalCO2Emission 	147.25217392669
scalar IntersectionExampleScenario.node[45].appl 	VehicleRemoved 	0
scalar IntersectionExampleScenario.node[45].appl 	ArrivedAtDest 	1
scalar IntersectionExampleScenario.node[45].appl 	IntersectionEnterTime 	108.5
scalar IntersectionExampleScenario.node[45].appl 	IntersectionExitTime 	130.10663623121
scalar IntersectionExampleScenario.node[45].appl 	NumberOfCollisions 	0
scalar IntersectionExampleScenario.node[45].nic.phy80211p 	busyTime 	0
scalar IntersectionExampleScenario.node[45].nic.mac1609_4 	ReceivedUnicastPackets 	0
scalar IntersectionExampleScenario.node[45].nic.mac1609_4 	ReceivedBroadcasts 	0
scalar IntersectionExampleScenario.node[45].nic.mac1609_4 	SentPackets 	0
scalar IntersectionExampleScenario.node[45].nic.mac1609_4 	SNIRLostPackets 	0
scalar IntersectionExampleScenario.node[45].nic.mac1609_4 	RXTXLostPackets 	0
scalar IntersectionExampleScenario.node[45].nic.mac1609_4 	TotalLostPackets 	0
scalar IntersectionExampleScenario.node[45].nic.mac1609_4 	DroppedPacketsInMac 	0
scalar IntersectionExampleScenario.node[45].nic.mac1609_4 	TooLittleTime 	0
scalar IntersectionExampleScenario.node[45].nic.mac1609_4 	TimesIntoBackoff 	0
scalar IntersectionExampleScenario.node[45].nic.mac1609_4 	SlotsBackoff 	0
scalar IntersectionExampleScenario.node[45].nic.mac1609_4 	NumInternalContention 	0
scalar IntersectionExampleScenario.node[45].nic.mac1609_4 	totalBusyTime 	0
scalar IntersectionExampleScenario.node[45].veinsmobility 	startTime 	108.5
scalar IntersectionExampleScenario.node[45].veinsmobility 	totalTime 	36.25
scalar IntersectionExampleScenario.node[45].veinsmobility 	stopTime 	145
scalar IntersectionExampleScenario.node[45].veinsmobility 	minSpeed 	5.6500000953674
scalar IntersectionExampleScenario.node[45].veinsmobility 	maxSpeed 	16.917833328247
scalar IntersectionExampleScenario.node[45].veinsmobility 	totalDistance 	551.04986572266
scalar IntersectionExampleScenario.node[45].veinsmobility 	totalCO2Emission 	127.12423709519
scalar IntersectionExampleScenario.node[39].appl 	VehicleRemoved 	0
scalar IntersectionExampleScenario.node[39].appl 	ArrivedAtDest 	1
scalar IntersectionExampleScenario.node[39].appl 	IntersectionEnterTime 	96.25
scalar IntersectionExampleScenario.node[39].appl 	IntersectionExitTime 	133.11219554782
scalar IntersectionExampleScenario.node[39].appl 	NumberOfCollisions 	0
scalar IntersectionExampleScenario.node[39].nic.phy80211p 	busyTime 	0
scalar IntersectionExampleScenario.node[39].nic.mac1609_4 	ReceivedUnicastPackets 	0
scalar IntersectionExampleScenario.node[39].nic.mac1609_4 	ReceivedBroadcasts 	0
scalar IntersectionExampleScenario.node[39].nic.mac1609_4 	SentPackets 	0
scalar IntersectionExampleScenario.node[39].nic.mac1609_4 	SNIRLostPackets 	0
scalar IntersectionExampleScenario.node[39].nic.mac1609_4 	RXTXLostPackets 	0
scalar IntersectionExampleScenario.node[39].nic.mac1609_4 	TotalLostPackets 	0
scalar IntersectionExampleScenario.node[39].nic.mac1609_4 	DroppedPacketsInMac 	0
scalar IntersectionExampleScenario.node[39].nic.mac1609_4 	TooLittleTime 	0
scalar IntersectionExampleScenario.node[39].nic.mac1609_4 	TimesIntoBackoff 	0
scalar IntersectionExampleScenario.node[39].nic.mac1609_4 	SlotsBackoff 	0
scalar IntersectionExampleScenario.node[39].nic.mac1609_4 	NumInternalContention 	0
scalar IntersectionExampleScenario.node[39].nic.mac1609_4 	totalBusyTime 	0
scalar IntersectionExampleScenario.node[39].veinsmobility 	startTime 	96.25
scalar IntersectionExampleScenario.node[39].veinsmobility 	totalTime 	52.5
scalar IntersectionExampleScenario.node[39].veinsmobility 	stopTime 	149
scalar IntersectionExampleScenario.node[39].veinsmobility 	minSpeed 	0
scalar IntersectionExampleScenario.node[39].veinsmobility 	maxSpeed 	16
scalar IntersectionExampleScenario.node[39].veinsmobility 	totalDistance 	541.30373499386
scalar IntersectionExampleScenario.node[39].veinsmobility 	totalCO2Emission 	149.23865576243
scalar IntersectionExampleScenario.node[34].appl 	VehicleRemoved 	0
scalar IntersectionExampleScenario.node[34].appl 	ArrivedAtDest 	1
scalar IntersectionExampleScenario.node[34].appl 	IntersectionEnterTime 	93
scalar IntersectionExampleScenario.node[34].appl 	IntersectionExitTime 	132.2621558352
scalar IntersectionExampleScenario.node[34].appl 	NumberOfCollisions 	0
scalar IntersectionExampleScenario.node[34].nic.phy80211p 	busyTime 	0
scalar IntersectionExampleScenario.node[34].nic.mac1609_4 	ReceivedUnicastPackets 	0
scalar IntersectionExampleScenario.node[34].nic.mac1609_4 	ReceivedBroadcasts 	0
scalar IntersectionExampleScenario.node[34].nic.mac1609_4 	SentPackets 	0
scalar IntersectionExampleScenario.node[34].nic.mac1609_4 	SNIRLostPackets 	0
scalar IntersectionExampleScenario.node[34].nic.mac1609_4 	RXTXLostPackets 	0
scalar IntersectionExampleScenario.node[34].nic.mac1609_4 	TotalLostPackets 	0
scalar IntersectionExampleScenario.node[34].nic.mac1609_4 	DroppedPacketsInMac 	0
scalar IntersectionExampleScenario.node[34].nic.mac1609_4 	TooLittleTime 	0
scalar IntersectionExampleScenario.node[34].nic.mac1609_4 	TimesIntoBackoff 	0
scalar IntersectionExampleScenario.node[34].nic.mac1609_4 	SlotsBackoff 	0
scalar IntersectionExampleScenario.node[34].nic.mac1609_4 	NumInternalContention 	0
scalar IntersectionExampleScenario.node[34].nic.mac1609_4 	totalBusyTime 	0
scalar IntersectionExampleScenario.node[34].veinsmobility 	startTime 	93
scalar IntersectionExampleScenario.node[34].veinsmobility 	totalTime 	56
scalar IntersectionExampleScenario.node[34].veinsmobility 	stopTime 	149.25
scalar IntersectionExampleScenario.node[34].veinsmobility 	minSpeed 	0
scalar IntersectionExampleScenario.node[34].veinsmobility 	maxSpeed 	14.75
scalar IntersectionExampleScenario.node[34].veinsmobility 	totalDistance 	551.7658996582
scalar IntersectionExampleScenario.node[34].veinsmobility 	totalCO2Emission 	141.77718691509
scalar IntersectionExampleScenario.node[38].appl 	VehicleRemoved 	0
scalar IntersectionExampleScenario.node[38].appl 	ArrivedAtDest 	1
scalar IntersectionExampleScenario.node[38].appl 	IntersectionEnterTime 	96
scalar IntersectionExampleScenario.node[38].appl 	IntersectionExitTime 	135.36177131461
scalar IntersectionExampleScenario.node[38].appl 	NumberOfCollisions 	0
scalar IntersectionExampleScenario.node[38].nic.phy80211p 	busyTime 	0
scalar IntersectionExampleScenario.node[38].nic.mac1609_4 	ReceivedUnicastPackets 	0
scalar IntersectionExampleScenario.node[38].nic.mac1609_4 	ReceivedBroadcasts 	0
scalar IntersectionExampleScenario.node[38].nic.mac1609_4 	SentPackets 	0
scalar IntersectionExampleScenario.node[38].nic.mac1609_4 	SNIRLostPackets 	0
scalar IntersectionExampleScenario.node[38].nic.mac1609_4 	RXTXLostPackets 	0
scalar IntersectionExampleScenario.node[38].nic.mac1609_4 	TotalLostPackets 	0
scalar IntersectionExampleScenario.node[38].nic.mac1609_4 	DroppedPacketsInMac 	0
scalar IntersectionExampleScenario.node[38].nic.mac1609_4 	TooLittleTime 	0
scalar IntersectionExampleScenario.node[38].nic.mac1609_4 	TimesIntoBackoff 	0
[...]
scalar IntersectionExampleScenario.node[775].veinsmobility 	totalCO2Emission 	62.938609565263
scalar IntersectionExampleScenario.node[776].appl 	VehicleRemoved 	0
scalar IntersectionExampleScenario.node[776].appl 	ArrivedAtDest 	0
scalar IntersectionExampleScenario.node[776].appl 	IntersectionEnterTime 	1783.5
scalar IntersectionExampleScenario.node[776].appl 	IntersectionExitTime 	-1
scalar IntersectionExampleScenario.node[776].appl 	NumberOfCollisions 	0
scalar IntersectionExampleScenario.node[776].nic.phy80211p 	busyTime 	0
scalar IntersectionExampleScenario.node[776].nic.mac1609_4 	ReceivedUnicastPackets 	0
scalar IntersectionExampleScenario.node[776].nic.mac1609_4 	ReceivedBroadcasts 	0
scalar IntersectionExampleScenario.node[776].nic.mac1609_4 	SentPackets 	0
scalar IntersectionExampleScenario.node[776].nic.mac1609_4 	SNIRLostPackets 	0
scalar IntersectionExampleScenario.node[776].nic.mac1609_4 	RXTXLostPackets 	0
scalar IntersectionExampleScenario.node[776].nic.mac1609_4 	TotalLostPackets 	0
scalar IntersectionExampleScenario.node[776].nic.mac1609_4 	DroppedPacketsInMac 	0
scalar IntersectionExampleScenario.node[776].nic.mac1609_4 	TooLittleTime 	0
scalar IntersectionExampleScenario.node[776].nic.mac1609_4 	TimesIntoBackoff 	0
scalar IntersectionExampleScenario.node[776].nic.mac1609_4 	SlotsBackoff 	0
scalar IntersectionExampleScenario.node[776].nic.mac1609_4 	NumInternalContention 	0
scalar IntersectionExampleScenario.node[776].nic.mac1609_4 	totalBusyTime 	0
scalar IntersectionExampleScenario.node[776].veinsmobility 	startTime 	1783.5
scalar IntersectionExampleScenario.node[776].veinsmobility 	totalTime 	16.5
scalar IntersectionExampleScenario.node[776].veinsmobility 	stopTime 	1800
scalar IntersectionExampleScenario.node[776].veinsmobility 	minSpeed 	5.6500000953674
scalar IntersectionExampleScenario.node[776].veinsmobility 	maxSpeed 	15.64999961853
scalar IntersectionExampleScenario.node[776].veinsmobility 	totalDistance 	235.27240753174
scalar IntersectionExampleScenario.node[776].veinsmobility 	totalCO2Emission 	60.579099882328
scalar IntersectionExampleScenario.node[777].appl 	VehicleRemoved 	0
scalar IntersectionExampleScenario.node[777].appl 	ArrivedAtDest 	0
scalar IntersectionExampleScenario.node[777].appl 	IntersectionEnterTime 	1784.25
scalar IntersectionExampleScenario.node[777].appl 	IntersectionExitTime 	-1
scalar IntersectionExampleScenario.node[777].appl 	NumberOfCollisions 	0
scalar IntersectionExampleScenario.node[777].nic.phy80211p 	busyTime 	0
scalar IntersectionExampleScenario.node[777].nic.mac1609_4 	ReceivedUnicastPackets 	0
scalar IntersectionExampleScenario.node[777].nic.mac1609_4 	ReceivedBroadcasts 	0
scalar IntersectionExampleScenario.node[777].nic.mac1609_4 	SentPackets 	0
scalar IntersectionExampleScenario.node[777].nic.mac1609_4 	SNIRLostPackets 	0
scalar IntersectionExampleScenario.node[777].nic.mac1609_4 	RXTXLostPackets 	0
scalar IntersectionExampleScenario.node[777].nic.mac1609_4 	TotalLostPackets 	0
scalar IntersectionExampleScenario.node[777].nic.mac1609_4 	DroppedPacketsInMac 	0
scalar IntersectionExampleScenario.node[777].nic.mac1609_4 	TooLittleTime 	0
scalar IntersectionExampleScenario.node[777].nic.mac1609_4 	TimesIntoBackoff 	0
scalar IntersectionExampleScenario.node[777].nic.mac1609_4 	SlotsBackoff 	0
scalar IntersectionExampleScenario.node[777].nic.mac1609_4 	NumInternalContention 	0
scalar IntersectionExampleScenario.node[777].nic.mac1609_4 	totalBusyTime 	0
scalar IntersectionExampleScenario.node[777].veinsmobility 	startTime 	1784.25
scalar IntersectionExampleScenario.node[777].veinsmobility 	totalTime 	15.75
scalar IntersectionExampleScenario.node[777].veinsmobility 	stopTime 	1800
scalar IntersectionExampleScenario.node[777].veinsmobility 	minSpeed 	5.6500000953674
scalar IntersectionExampleScenario.node[777].veinsmobility 	maxSpeed 	15.107194900513
scalar IntersectionExampleScenario.node[777].veinsmobility 	totalDistance 	210.1672744751
scalar IntersectionExampleScenario.node[777].veinsmobility 	totalCO2Emission 	53.878159463125
scalar IntersectionExampleScenario.node[778].appl 	VehicleRemoved 	0
scalar IntersectionExampleScenario.node[778].appl 	ArrivedAtDest 	0
scalar IntersectionExampleScenario.node[778].appl 	IntersectionEnterTime 	1786
scalar IntersectionExampleScenario.node[778].appl 	IntersectionExitTime 	-1
scalar IntersectionExampleScenario.node[778].appl 	NumberOfCollisions 	0
scalar IntersectionExampleScenario.node[778].nic.phy80211p 	busyTime 	0
scalar IntersectionExampleScenario.node[778].nic.mac1609_4 	ReceivedUnicastPackets 	0
scalar IntersectionExampleScenario.node[778].nic.mac1609_4 	ReceivedBroadcasts 	0
scalar IntersectionExampleScenario.node[778].nic.mac1609_4 	SentPackets 	0
scalar IntersectionExampleScenario.node[778].nic.mac1609_4 	SNIRLostPackets 	0
scalar IntersectionExampleScenario.node[778].nic.mac1609_4 	RXTXLostPackets 	0
scalar IntersectionExampleScenario.node[778].nic.mac1609_4 	TotalLostPackets 	0
scalar IntersectionExampleScenario.node[778].nic.mac1609_4 	DroppedPacketsInMac 	0
scalar IntersectionExampleScenario.node[778].nic.mac1609_4 	TooLittleTime 	0
scalar IntersectionExampleScenario.node[778].nic.mac1609_4 	TimesIntoBackoff 	0
scalar IntersectionExampleScenario.node[778].nic.mac1609_4 	SlotsBackoff 	0
scalar IntersectionExampleScenario.node[778].nic.mac1609_4 	NumInternalContention 	0
scalar IntersectionExampleScenario.node[778].nic.mac1609_4 	totalBusyTime 	0
scalar IntersectionExampleScenario.node[778].veinsmobility 	startTime 	1786
scalar IntersectionExampleScenario.node[778].veinsmobility 	totalTime 	14
scalar IntersectionExampleScenario.node[778].veinsmobility 	stopTime 	1800
scalar IntersectionExampleScenario.node[778].veinsmobility 	minSpeed 	5.6500000953674
scalar IntersectionExampleScenario.node[778].veinsmobility 	maxSpeed 	15.64999961853
scalar IntersectionExampleScenario.node[778].veinsmobility 	totalDistance 	193.46197509766
scalar IntersectionExampleScenario.node[778].veinsmobility 	totalCO2Emission 	52.711004357993
scalar IntersectionExampleScenario.node[779].appl 	VehicleRemoved 	0
scalar IntersectionExampleScenario.node[779].appl 	ArrivedAtDest 	0
scalar IntersectionExampleScenario.node[779].appl 	IntersectionEnterTime 	1786.5
scalar IntersectionExampleScenario.node[779].appl 	IntersectionExitTime 	-1
scalar IntersectionExampleScenario.node[779].appl 	NumberOfCollisions 	0
scalar IntersectionExampleScenario.node[779].nic.phy80211p 	busyTime 	0
scalar IntersectionExampleScenario.node[779].nic.mac1609_4 	ReceivedUnicastPackets 	0
scalar IntersectionExampleScenario.node[779].nic.mac1609_4 	ReceivedBroadcasts 	0
scalar IntersectionExampleScenario.node[779].nic.mac1609_4 	SentPackets 	0
scalar IntersectionExampleScenario.node[779].nic.mac1609_4 	SNIRLostPackets 	0
scalar IntersectionExampleScenario.node[779].nic.mac1609_4 	RXTXLostPackets 	0
scalar IntersectionExampleScenario.node[779].nic.mac1609_4 	TotalLostPackets 	0
scalar IntersectionExampleScenario.node[779].nic.mac1609_4 	DroppedPacketsInMac 	0
scalar IntersectionExampleScenario.node[779].nic.mac1609_4 	TooLittleTime 	0
scalar IntersectionExampleScenario.node[779].nic.mac1609_4 	TimesIntoBackoff 	0
scalar IntersectionExampleScenario.node[779].nic.mac1609_4 	SlotsBackoff 	0
scalar IntersectionExampleScenario.node[779].nic.mac1609_4 	NumInternalContention 	0
scalar IntersectionExampleScenario.node[779].nic.mac1609_4 	totalBusyTime 	0
scalar IntersectionExampleScenario.node[779].veinsmobility 	startTime 	1786.5
scalar IntersectionExampleScenario.node[779].veinsmobility 	totalTime 	13.5
scalar IntersectionExampleScenario.node[779].veinsmobility 	stopTime 	1800
scalar IntersectionExampleScenario.node[779].veinsmobility 	minSpeed 	5.6500000953674
scalar IntersectionExampleScenario.node[779].veinsmobility 	maxSpeed 	15.02499961853
scalar IntersectionExampleScenario.node[779].veinsmobility 	totalDistance 	181.34812164307
scalar IntersectionExampleScenario.node[779].veinsmobility 	totalCO2Emission 	50.275302795123
scalar IntersectionExampleScenario.node[780].appl 	VehicleRemoved 	0
scalar IntersectionExampleScenario.node[780].appl 	ArrivedAtDest 	0
scalar IntersectionExampleScenario.node[780].appl 	IntersectionEnterTime 	1790.75
scalar IntersectionExampleScenario.node[780].appl 	IntersectionExitTime 	-1
scalar IntersectionExampleScenario.node[780].appl 	NumberOfCollisions 	0
scalar IntersectionExampleScenario.node[780].nic.phy80211p 	busyTime 	0
scalar IntersectionExampleScenario.node[780].nic.mac1609_4 	ReceivedUnicastPackets 	0
scalar IntersectionExampleScenario.node[780].nic.mac1609_4 	ReceivedBroadcasts 	0
scalar IntersectionExampleScenario.node[780].nic.mac1609_4 	SentPackets 	0
scalar IntersectionExampleScenario.node[780].nic.mac1609_4 	SNIRLostPackets 	0
scalar IntersectionExampleScenario.node[780].nic.mac1609_4 	RXTXLostPackets 	0
scalar IntersectionExampleScenario.node[780].nic.mac1609_4 	TotalLostPackets 	0
scalar IntersectionExampleScenario.node[780].nic.mac1609_4 	DroppedPacketsInMac 	0
scalar IntersectionExampleScenario.node[780].nic.mac1609_4 	TooLittleTime 	0
scalar IntersectionExampleScenario.node[780].nic.mac1609_4 	TimesIntoBackoff 	0
scalar IntersectionExampleScenario.node[780].nic.mac1609_4 	SlotsBackoff 	0
scalar IntersectionExampleScenario.node[780].nic.mac1609_4 	NumInternalContention 	0
scalar IntersectionExampleScenario.node[780].nic.mac1609_4 	totalBusyTime 	0
scalar IntersectionExampleScenario.node[780].veinsmobility 	startTime 	1790.75
scalar IntersectionExampleScenario.node[780].veinsmobility 	totalTime 	9.25
scalar IntersectionExampleScenario.node[780].veinsmobility 	stopTime 	1800
scalar IntersectionExampleScenario.node[780].veinsmobility 	minSpeed 	5.6500000953674
scalar IntersectionExampleScenario.node[780].veinsmobility 	maxSpeed 	15.722170829773
scalar IntersectionExampleScenario.node[780].veinsmobility 	totalDistance 	122.28863525391
scalar IntersectionExampleScenario.node[780].veinsmobility 	totalCO2Emission 	44.709140385979
scalar IntersectionExampleScenario.node[781].appl 	VehicleRemoved 	0
scalar IntersectionExampleScenario.node[781].appl 	ArrivedAtDest 	0
scalar IntersectionExampleScenario.node[781].appl 	IntersectionEnterTime 	1792.5
scalar IntersectionExampleScenario.node[781].appl 	IntersectionExitTime 	-1
scalar IntersectionExampleScenario.node[781].appl 	NumberOfCollisions 	0
scalar IntersectionExampleScenario.node[781].nic.phy80211p 	busyTime 	0
scalar IntersectionExampleScenario.node[781].nic.mac1609_4 	ReceivedUnicastPackets 	0
scalar IntersectionExampleScenario.node[781].nic.mac1609_4 	ReceivedBroadcasts 	0
scalar IntersectionExampleScenario.node[781].nic.mac1609_4 	SentPackets 	0
scalar IntersectionExampleScenario.node[781].nic.mac1609_4 	SNIRLostPackets 	0
scalar IntersectionExampleScenario.node[781].nic.mac1609_4 	RXTXLostPackets 	0
scalar IntersectionExampleScenario.node[781].nic.mac1609_4 	TotalLostPackets 	0
scalar IntersectionExampleScenario.node[781].nic.mac1609_4 	DroppedPacketsInMac 	0
scalar IntersectionExampleScenario.node[781].nic.mac1609_4 	TooLittleTime 	0
scalar IntersectionExampleScenario.node[781].nic.mac1609_4 	TimesIntoBackoff 	0
scalar IntersectionExampleScenario.node[781].nic.mac1609_4 	SlotsBackoff 	0
scalar IntersectionExampleScenario.node[781].nic.mac1609_4 	NumInternalContention 	0
scalar IntersectionExampleScenario.node[781].nic.mac1609_4 	totalBusyTime 	0
scalar IntersectionExampleScenario.node[781].veinsmobility 	startTime 	1792.5
scalar IntersectionExampleScenario.node[781].veinsmobility 	totalTime 	7.5
scalar IntersectionExampleScenario.node[781].veinsmobility 	stopTime 	1800
scalar IntersectionExampleScenario.node[781].veinsmobility 	minSpeed 	5.6500000953674
scalar IntersectionExampleScenario.node[781].veinsmobility 	maxSpeed 	15.02499961853
scalar IntersectionExampleScenario.node[781].veinsmobility 	totalDistance 	92.119873046875
scalar IntersectionExampleScenario.node[781].veinsmobility 	totalCO2Emission 	37.348884457785
scalar IntersectionExampleScenario.node[782].appl 	VehicleRemoved 	0
scalar IntersectionExampleScenario.node[782].appl 	ArrivedAtDest 	0
scalar IntersectionExampleScenario.node[782].appl 	IntersectionEnterTime 	1793
scalar IntersectionExampleScenario.node[782].appl 	IntersectionExitTime 	-1
scalar IntersectionExampleScenario.node[782].appl 	NumberOfCollisions 	0
scalar IntersectionExampleScenario.node[782].nic.phy80211p 	busyTime 	0
scalar IntersectionExampleScenario.node[782].nic.mac1609_4 	ReceivedUnicastPackets 	0
scalar IntersectionExampleScenario.node[782].nic.mac1609_4 	ReceivedBroadcasts 	0
scalar IntersectionExampleScenario.node[782].nic.mac1609_4 	SentPackets 	0
scalar IntersectionExampleScenario.node[782].nic.mac1609_4 	SNIRLostPackets 	0
scalar IntersectionExampleScenario.node[782].nic.mac1609_4 	RXTXLostPackets 	0
scalar IntersectionExampleScenario.node[782].nic.mac1609_4 	TotalLostPackets 	0
scalar IntersectionExampleScenario.node[782].nic.mac1609_4 	DroppedPacketsInMac 	0
scalar IntersectionExampleScenario.node[782].nic.mac1609_4 	TooLittleTime 	0
scalar IntersectionExampleScenario.node[782].nic.mac1609_4 	TimesIntoBackoff 	0
scalar IntersectionExampleScenario.node[782].nic.mac1609_4 	SlotsBackoff 	0
scalar IntersectionExampleScenario.node[782].nic.mac1609_4 	NumInternalContention 	0
scalar IntersectionExampleScenario.node[782].nic.mac1609_4 	totalBusyTime 	0
scalar IntersectionExampleScenario.node[782].veinsmobility 	startTime 	1793
scalar IntersectionExampleScenario.node[782].veinsmobility 	totalTime 	7
scalar IntersectionExampleScenario.node[782].veinsmobility 	stopTime 	1800
scalar IntersectionExampleScenario.node[782].veinsmobility 	minSpeed 	5.6500000953674
scalar IntersectionExampleScenario.node[782].veinsmobility 	maxSpeed 	15.02499961853
scalar IntersectionExampleScenario.node[782].veinsmobility 	totalDistance 	84.234321594238
scalar IntersectionExampleScenario.node[782].veinsmobility 	totalCO2Emission 	35.607589180258
scalar IntersectionExampleScenario.node[783].appl 	VehicleRemoved 	0
scalar IntersectionExampleScenario.node[783].appl 	ArrivedAtDest 	0
scalar IntersectionExampleScenario.node[783].appl 	IntersectionEnterTime 	1794.75
scalar IntersectionExampleScenario.node[783].appl 	IntersectionExitTime 	-1
scalar IntersectionExampleScenario.node[783].appl 	NumberOfCollisions 	0
scalar IntersectionExampleScenario.node[783].nic.phy80211p 	busyTime 	0
scalar IntersectionExampleScenario.node[783].nic.mac1609_4 	ReceivedUnicastPackets 	0
scalar IntersectionExampleScenario.node[783].nic.mac1609_4 	ReceivedBroadcasts 	0
scalar IntersectionExampleScenario.node[783].nic.mac1609_4 	SentPackets 	0
scalar IntersectionExampleScenario.node[783].nic.mac1609_4 	SNIRLostPackets 	0
scalar IntersectionExampleScenario.node[783].nic.mac1609_4 	RXTXLostPackets 	0
scalar IntersectionExampleScenario.node[783].nic.mac1609_4 	TotalLostPackets 	0
scalar IntersectionExampleScenario.node[783].nic.mac1609_4 	DroppedPacketsInMac 	0
scalar IntersectionExampleScenario.node[783].nic.mac1609_4 	TooLittleTime 	0
scalar IntersectionExampleScenario.node[783].nic.mac1609_4 	TimesIntoBackoff 	0
scalar IntersectionExampleScenario.node[783].nic.mac1609_4 	SlotsBackoff 	0
scalar IntersectionExampleScenario.node[783].nic.mac1609_4 	NumInternalContention 	0
scalar IntersectionExampleScenario.node[783].nic.mac1609_4 	totalBusyTime 	0
scalar IntersectionExampleScenario.node[783].veinsmobility 	startTime 	1794.75
scalar IntersectionExampleScenario.node[783].veinsmobility 	totalTime 	5.25
scalar IntersectionExampleScenario.node[783].veinsmobility 	stopTime 	1800
scalar IntersectionExampleScenario.node[783].veinsmobility 	minSpeed 	5.6500000953674
scalar IntersectionExampleScenario.node[783].veinsmobility 	maxSpeed 	12.52499961853
scalar IntersectionExampleScenario.node[783].veinsmobility 	totalDistance 	47.714157104492
scalar IntersectionExampleScenario.node[783].veinsmobility 	totalCO2Emission 	22.860430613662
scalar IntersectionExampleScenario.node[784].appl 	VehicleRemoved 	0
scalar IntersectionExampleScenario.node[784].appl 	ArrivedAtDest 	0
scalar IntersectionExampleScenario.node[784].appl 	IntersectionEnterTime 	1796.75
scalar IntersectionExampleScenario.node[784].appl 	IntersectionExitTime 	-1
scalar IntersectionExampleScenario.node[784].appl 	NumberOfCollisions 	0
scalar IntersectionExampleScenario.node[784].nic.phy80211p 	busyTime 	0
scalar IntersectionExampleScenario.node[784].nic.mac1609_4 	ReceivedUnicastPackets 	0
scalar IntersectionExampleScenario.node[784].nic.mac1609_4 	ReceivedBroadcasts 	0
scalar IntersectionExampleScenario.node[784].nic.mac1609_4 	SentPackets 	0
scalar IntersectionExampleScenario.node[784].nic.mac1609_4 	SNIRLostPackets 	0
scalar IntersectionExampleScenario.node[784].nic.mac1609_4 	RXTXLostPackets 	0
scalar IntersectionExampleScenario.node[784].nic.mac1609_4 	TotalLostPackets 	0
scalar IntersectionExampleScenario.node[784].nic.mac1609_4 	DroppedPacketsInMac 	0
scalar IntersectionExampleScenario.node[784].nic.mac1609_4 	TooLittleTime 	0
scalar IntersectionExampleScenario.node[784].nic.mac1609_4 	TimesIntoBackoff 	0
scalar IntersectionExampleScenario.node[784].nic.mac1609_4 	SlotsBackoff 	0
scalar IntersectionExampleScenario.node[784].nic.mac1609_4 	NumInternalContention 	0
scalar IntersectionExampleScenario.node[784].nic.mac1609_4 	totalBusyTime 	0
scalar IntersectionExampleScenario.node[784].veinsmobility 	startTime 	1796.75
scalar IntersectionExampleScenario.node[784].veinsmobility 	totalTime 	3.25
scalar IntersectionExampleScenario.node[784].veinsmobility 	stopTime 	1800
scalar IntersectionExampleScenario.node[784].veinsmobility 	minSpeed 	5.6500000953674
scalar IntersectionExampleScenario.node[784].veinsmobility 	maxSpeed 	10.283800125122
scalar IntersectionExampleScenario.node[784].veinsmobility 	totalDistance 	27.749618530273
scalar IntersectionExampleScenario.node[784].veinsmobility 	totalCO2Emission 	14.080333339019
scalar IntersectionExampleScenario.node[785].appl 	VehicleRemoved 	0
scalar IntersectionExampleScenario.node[785].appl 	ArrivedAtDest 	0
scalar IntersectionExampleScenario.node[785].appl 	IntersectionEnterTime 	1798
scalar IntersectionExampleScenario.node[785].appl 	IntersectionExitTime 	-1
scalar IntersectionExampleScenario.node[785].appl 	NumberOfCollisions 	0
scalar IntersectionExampleScenario.node[785].nic.phy80211p 	busyTime 	0
scalar IntersectionExampleScenario.node[785].nic.mac1609_4 	ReceivedUnicastPackets 	0
scalar IntersectionExampleScenario.node[785].nic.mac1609_4 	ReceivedBroadcasts 	0
scalar IntersectionExampleScenario.node[785].nic.mac1609_4 	SentPackets 	0
scalar IntersectionExampleScenario.node[785].nic.mac1609_4 	SNIRLostPackets 	0
scalar IntersectionExampleScenario.node[785].nic.mac1609_4 	RXTXLostPackets 	0
scalar IntersectionExampleScenario.node[785].nic.mac1609_4 	TotalLostPackets 	0
scalar IntersectionExampleScenario.node[785].nic.mac1609_4 	DroppedPacketsInMac 	0
scalar IntersectionExampleScenario.node[785].nic.mac1609_4 	TooLittleTime 	0
scalar IntersectionExampleScenario.node[785].nic.mac1609_4 	TimesIntoBackoff 	0
scalar IntersectionExampleScenario.node[785].nic.mac1609_4 	SlotsBackoff 	0
scalar IntersectionExampleScenario.node[785].nic.mac1609_4 	NumInternalContention 	0
scalar IntersectionExampleScenario.node[785].nic.mac1609_4 	totalBusyTime 	0
scalar IntersectionExampleScenario.node[785].veinsmobility 	startTime 	1798
scalar IntersectionExampleScenario.node[785].veinsmobility 	totalTime 	2
scalar IntersectionExampleScenario.node[785].veinsmobility 	stopTime 	1800
scalar IntersectionExampleScenario.node[785].veinsmobility 	minSpeed 	5.6500000953674
scalar IntersectionExampleScenario.node[785].veinsmobility 	maxSpeed 	10.02499961853
scalar IntersectionExampleScenario.node[785].veinsmobility 	totalDistance 	15.050003051758
scalar IntersectionExampleScenario.node[785].veinsmobility 	totalCO2Emission 	11.317369352905
