file 29356770 1591464573                                        
version 2
run nodebug-34-20200606-13:24:53-21956
attr configname nodebug
attr datetime 20200606-13:24:53
attr experiment nodebug
attr inifile omnetpp.ini
attr iterationvars ""
attr iterationvars2 $repetition=34
attr measurement ""
attr network "\"org.car2x.veins.modules.application.ExtTraCIScenarioManagerLaunchd.IntersectionExampleScenario\""
attr processid 21956
attr repetition 34
attr replication #34
attr resultdir results
attr runnumber 34
attr seedset 34
param **.coreDebug false
param **.debug false
param *.**.nic.mac1609_4.bitrate 18Mbps
param *.**.nic.mac1609_4.txPower 20mW
param *.**.nic.mac1609_4.useServiceChannel false
param *.**.nic.phy80211p.analogueModels "xmldoc(\"config.xml\")"
param *.**.nic.phy80211p.decider "xmldoc(\"config.xml\")"
param *.**.nic.phy80211p.sensitivity -89dBm
param *.**.nic.phy80211p.thermalNoise -110dBm
param *.**.nic.phy80211p.usePropagationDelay true
param *.**.nic.phy80211p.useThermalNoise true
param *.annotations.draw false
param *.connectionManager.alpha 2.0
param *.connectionManager.carrierFrequency "5.890e9 Hz"
param *.connectionManager.pMax 20mW
param *.connectionManager.sat -89dBm
param *.connectionManager.sendDirect true
param *.manager.autoShutdown true
param *.manager.host "\"localhost\""
param *.manager.launchConfig "xmldoc(\"paramics.launchd.xml\")"
param *.manager.margin 25
param *.manager.moduleDisplayString "\"\""
param *.manager.moduleName "\"node\""
param *.manager.moduleType "\"org.car2x.veins.nodes.Car\""
param *.manager.port 9999
param *.manager.updateInterval 250ms
param *.node[*0].veinsmobility.accidentCount 0
param *.node[*0].veinsmobility.accidentDuration 30s
param *.node[*0].veinsmobility.accidentStart 75s
param *.node[*].appl.LiderSelectZoneRadio 55.0
param *.node[*].appl.ShareDataZoneRadio 110.0
param *.node[*].appl.TiempoSemaforo 30.0
param *.node[*].appl.beaconInterval 1s
param *.node[*].appl.beaconPriority 3
param *.node[*].appl.dataOnSch false
param *.node[*].appl.dataPriority 2
param *.node[*].appl.debug false
param *.node[*].appl.headerLength "256 bit"
param *.node[*].appl.maxOffset 0.005s
param *.node[*].appl.sendBeacons false
param *.node[*].appl.sendData true
param *.node[*].applType "\"Dummy\""
param *.node[*].mobilityType "\"TraCIMobility\""
param *.node[*].mobilityType.debug true
param *.node[*].veinsmobility.x 0
param *.node[*].veinsmobility.y 0
param *.node[*].veinsmobility.z 1.895
param *.node[*].veinsmobilityType "\"org.car2x.veins.modules.mobility.traci.TraCIMobility\""
param *.node[*].veinsmobilityType.debug true
param *.playgroundSizeX 8500m
param *.playgroundSizeY 8500m
param *.playgroundSizeZ 50m
param *.world.use2D false
param *.world.useTorus false

vector 72952  IntersectionExampleScenario.manager  vehiclesinsim  ETV
attr type  int
vector 72953  IntersectionExampleScenario.manager  realtime  ETV
attr type  int
attr unit  s
vector 72956  IntersectionExampleScenario.node[0].veinsmobility  posx  ETV
vector 72957  IntersectionExampleScenario.node[0].veinsmobility  posy  ETV
vector 72958  IntersectionExampleScenario.node[0].veinsmobility  speed  ETV
vector 72959  IntersectionExampleScenario.node[0].veinsmobility  acceleration  ETV
vector 72960  IntersectionExampleScenario.node[0].veinsmobility  co2emission  ETV
vector 72963  IntersectionExampleScenario.node[1].veinsmobility  posx  ETV
vector 72964  IntersectionExampleScenario.node[1].veinsmobility  posy  ETV
vector 72965  IntersectionExampleScenario.node[1].veinsmobility  speed  ETV
vector 72966  IntersectionExampleScenario.node[1].veinsmobility  acceleration  ETV
vector 72967  IntersectionExampleScenario.node[1].veinsmobility  co2emission  ETV
vector 72970  IntersectionExampleScenario.node[2].veinsmobility  posx  ETV
vector 72971  IntersectionExampleScenario.node[2].veinsmobility  posy  ETV
vector 72972  IntersectionExampleScenario.node[2].veinsmobility  speed  ETV
vector 72973  IntersectionExampleScenario.node[2].veinsmobility  acceleration  ETV
vector 72974  IntersectionExampleScenario.node[2].veinsmobility  co2emission  ETV
vector 72977  IntersectionExampleScenario.node[3].veinsmobility  posx  ETV
vector 72978  IntersectionExampleScenario.node[3].veinsmobility  posy  ETV
vector 72984  IntersectionExampleScenario.node[4].veinsmobility  posx  ETV
vector 72985  IntersectionExampleScenario.node[4].veinsmobility  posy  ETV
vector 72979  IntersectionExampleScenario.node[3].veinsmobility  speed  ETV
vector 72980  IntersectionExampleScenario.node[3].veinsmobility  acceleration  ETV
vector 72981  IntersectionExampleScenario.node[3].veinsmobility  co2emission  ETV
vector 72986  IntersectionExampleScenario.node[4].veinsmobility  speed  ETV
vector 72987  IntersectionExampleScenario.node[4].veinsmobility  acceleration  ETV
vector 72988  IntersectionExampleScenario.node[4].veinsmobility  co2emission  ETV
vector 72991  IntersectionExampleScenario.node[5].veinsmobility  posx  ETV
vector 72992  IntersectionExampleScenario.node[5].veinsmobility  posy  ETV
vector 72993  IntersectionExampleScenario.node[5].veinsmobility  speed  ETV
vector 72994  IntersectionExampleScenario.node[5].veinsmobility  acceleration  ETV
vector 72995  IntersectionExampleScenario.node[5].veinsmobility  co2emission  ETV
vector 72998  IntersectionExampleScenario.node[6].veinsmobility  posx  ETV
vector 72999  IntersectionExampleScenario.node[6].veinsmobility  posy  ETV
vector 73000  IntersectionExampleScenario.node[6].veinsmobility  speed  ETV
vector 73001  IntersectionExampleScenario.node[6].veinsmobility  acceleration  ETV
vector 73002  IntersectionExampleScenario.node[6].veinsmobility  co2emission  ETV
vector 73005  IntersectionExampleScenario.node[7].veinsmobility  posx  ETV
vector 73006  IntersectionExampleScenario.node[7].veinsmobility  posy  ETV
vector 73007  IntersectionExampleScenario.node[7].veinsmobility  speed  ETV
vector 73008  IntersectionExampleScenario.node[7].veinsmobility  acceleration  ETV
vector 73009  IntersectionExampleScenario.node[7].veinsmobility  co2emission  ETV
vector 73012  IntersectionExampleScenario.node[8].veinsmobility  posx  ETV
vector 73013  IntersectionExampleScenario.node[8].veinsmobility  posy  ETV
vector 73014  IntersectionExampleScenario.node[8].veinsmobility  speed  ETV
vector 73015  IntersectionExampleScenario.node[8].veinsmobility  acceleration  ETV
vector 73016  IntersectionExampleScenario.node[8].veinsmobility  co2emission  ETV
vector 73019  IntersectionExampleScenario.node[9].veinsmobility  posx  ETV
vector 73020  IntersectionExampleScenario.node[9].veinsmobility  posy  ETV
vector 73021  IntersectionExampleScenario.node[9].veinsmobility  speed  ETV
vector 73026  IntersectionExampleScenario.node[10].veinsmobility  posx  ETV
vector 73027  IntersectionExampleScenario.node[10].veinsmobility  posy  ETV
vector 73022  IntersectionExampleScenario.node[9].veinsmobility  acceleration  ETV
vector 73023  IntersectionExampleScenario.node[9].veinsmobility  co2emission  ETV
vector 73028  IntersectionExampleScenario.node[10].veinsmobility  speed  ETV
vector 73029  IntersectionExampleScenario.node[10].veinsmobility  acceleration  ETV
vector 73030  IntersectionExampleScenario.node[10].veinsmobility  co2emission  ETV
vector 73033  IntersectionExampleScenario.node[11].veinsmobility  posx  ETV
vector 73034  IntersectionExampleScenario.node[11].veinsmobility  posy  ETV
vector 73035  IntersectionExampleScenario.node[11].veinsmobility  speed  ETV
vector 73036  IntersectionExampleScenario.node[11].veinsmobility  acceleration  ETV
vector 73037  IntersectionExampleScenario.node[11].veinsmobility  co2emission  ETV
vector 73040  IntersectionExampleScenario.node[12].veinsmobility  posx  ETV
vector 73041  IntersectionExampleScenario.node[12].veinsmobility  posy  ETV
vector 73042  IntersectionExampleScenario.node[12].veinsmobility  speed  ETV
vector 73043  IntersectionExampleScenario.node[12].veinsmobility  acceleration  ETV
vector 73044  IntersectionExampleScenario.node[12].veinsmobility  co2emission  ETV
vector 73047  IntersectionExampleScenario.node[13].veinsmobility  posx  ETV
vector 73048  IntersectionExampleScenario.node[13].veinsmobility  posy  ETV
vector 73049  IntersectionExampleScenario.node[13].veinsmobility  speed  ETV
vector 73050  IntersectionExampleScenario.node[13].veinsmobility  acceleration  ETV
vector 73051  IntersectionExampleScenario.node[13].veinsmobility  co2emission  ETV
vector 73054  IntersectionExampleScenario.node[14].veinsmobility  posx  ETV
vector 73055  IntersectionExampleScenario.node[14].veinsmobility  posy  ETV
vector 73056  IntersectionExampleScenario.node[14].veinsmobility  speed  ETV
vector 73057  IntersectionExampleScenario.node[14].veinsmobility  acceleration  ETV
vector 73058  IntersectionExampleScenario.node[14].veinsmobility  co2emission  ETV
vector 73061  IntersectionExampleScenario.node[15].veinsmobility  posx  ETV
vector 73062  IntersectionExampleScenario.node[15].veinsmobility  posy  ETV
vector 73063  IntersectionExampleScenario.node[15].veinsmobility  speed  ETV
vector 73064  IntersectionExampleScenario.node[15].veinsmobility  acceleration  ETV
vector 73065  IntersectionExampleScenario.node[15].veinsmobility  co2emission  ETV
vector 73068  IntersectionExampleScenario.node[16].veinsmobility  posx  ETV
vector 73069  IntersectionExampleScenario.node[16].veinsmobility  posy  ETV
vector 73075  IntersectionExampleScenario.node[17].veinsmobility  posx  ETV
vector 73076  IntersectionExampleScenario.node[17].veinsmobility  posy  ETV
vector 73070  IntersectionExampleScenario.node[16].veinsmobility  speed  ETV
vector 73077  IntersectionExampleScenario.node[17].veinsmobility  speed  ETV
vector 73071  IntersectionExampleScenario.node[16].veinsmobility  acceleration  ETV
vector 73072  IntersectionExampleScenario.node[16].veinsmobility  co2emission  ETV
vector 73078  IntersectionExampleScenario.node[17].veinsmobility  acceleration  ETV
vector 73079  IntersectionExampleScenario.node[17].veinsmobility  co2emission  ETV
vector 73082  IntersectionExampleScenario.node[18].veinsmobility  posx  ETV
vector 73083  IntersectionExampleScenario.node[18].veinsmobility  posy  ETV
vector 73089  IntersectionExampleScenario.node[19].veinsmobility  posx  ETV
vector 73090  IntersectionExampleScenario.node[19].veinsmobility  posy  ETV
vector 73096  IntersectionExampleScenario.node[20].veinsmobility  posx  ETV
vector 73097  IntersectionExampleScenario.node[20].veinsmobility  posy  ETV
vector 73084  IntersectionExampleScenario.node[18].veinsmobility  speed  ETV
vector 73091  IntersectionExampleScenario.node[19].veinsmobility  speed  ETV
vector 73085  IntersectionExampleScenario.node[18].veinsmobility  acceleration  ETV
vector 73086  IntersectionExampleScenario.node[18].veinsmobility  co2emission  ETV
vector 73092  IntersectionExampleScenario.node[19].veinsmobility  acceleration  ETV
vector 73093  IntersectionExampleScenario.node[19].veinsmobility  co2emission  ETV
vector 73098  IntersectionExampleScenario.node[20].veinsmobility  speed  ETV
vector 73099  IntersectionExampleScenario.node[20].veinsmobility  acceleration  ETV
vector 73100  IntersectionExampleScenario.node[20].veinsmobility  co2emission  ETV
72967	11307 4863 27 3055 2 40.25 154 0.973 11.648172402475 472.37063277033 2468.6221642102
72966	16170 4391 27 3055 2 40.25 154 -3.3639030456543 2.5 38.511121749878 193.75141553485
72965	20561 4767 22 3055 1.75 40.25 155 5.6500000953674 15.64999961853 2221.424943924 32483.242225398
72964	25328 5032 17 3055 1.5 40.25 156 483.14999389648 483.14999389648 75371.399047852 36415690.989939
72963	30360 5004 17 3055 1.5 40.25 156 184.17810058594 734.3458404541 70055.718399048 35615242.966205
vector 73103  IntersectionExampleScenario.node[21].veinsmobility  posx  ETV
vector 73104  IntersectionExampleScenario.node[21].veinsmobility  posy  ETV
72960	35518 5078 8 3171 0.75 41.25 163 0.973 11.36141391502 500.20291685831 2621.5739666824
72959	40596 4629 8 3171 0.75 41.25 163 -3.1996440887451 2.5 36.98334312439 264.49388481039
72958	45225 4963 5 3171 0.5 41.25 164 5.6500000953674 15.25 2186.6144032478 30404.092302408
72957	50188 5282 2 3171 0.25 41.25 165 486.85000610352 733.78477478027 88737.942260742 48675417.790399
72956	55470 5303 2 3171 0.25 41.25 165 486.79455566406 785.82187652588 94378.974708557 55752152.741199
vector 73105  IntersectionExampleScenario.node[21].veinsmobility  speed  ETV
vector 73106  IntersectionExampleScenario.node[21].veinsmobility  acceleration  ETV
vector 73107  IntersectionExampleScenario.node[21].veinsmobility  co2emission  ETV
72988	61020 4873 108 3388 4.75 43 154 0.973 11.200708441096 483.28801307662 2593.0989399353
72987	65893 4311 108 3388 4.75 43 154 -4.5 2.5 36.813589096069 237.20917752167
72986	70204 4818 97 3388 4.5 43 155 5.6500000953674 15.02499961853 2152.2020463943 30442.589541486
72985	75022 5065 86 3388 4.25 43 156 486.85000610352 486.85000610352 75948.600952148 36975576.837107
72984	80087 5038 86 3388 4.25 43 156 237.35302734375 770.41329193115 80124.528717041 45020594.249872
vector 73110  IntersectionExampleScenario.node[22].veinsmobility  posx  ETV
vector 73111  IntersectionExampleScenario.node[22].veinsmobility  posy  ETV
vector 73112  IntersectionExampleScenario.node[22].veinsmobility  speed  ETV
vector 73113  IntersectionExampleScenario.node[22].veinsmobility  acceleration  ETV
vector 73114  IntersectionExampleScenario.node[22].veinsmobility  co2emission  ETV
vector 73117  IntersectionExampleScenario.node[23].veinsmobility  posx  ETV
vector 73118  IntersectionExampleScenario.node[23].veinsmobility  posy  ETV
vector 73119  IntersectionExampleScenario.node[23].veinsmobility  speed  ETV
vector 73120  IntersectionExampleScenario.node[23].veinsmobility  acceleration  ETV
vector 73121  IntersectionExampleScenario.node[23].veinsmobility  co2emission  ETV
72981	85927 5201 97 3718 4.5 45.5 165 0.973 10.673710066838 492.62723844866 2431.9232009203
72980	91128 5030 97 3718 4.5 45.5 165 -4.5 2.5 40.676773071289 201.22759429415
72979	96158 5196 86 3718 4.25 45.5 166 4.6842041015625 15.297723770142 2254.1433382034 31517.379872242
72978	101354 5424 77 3718 4 45.5 167 486.85000610352 486.85000610352 81303.951019287 39582829.04998
72977	106778 5403 77 3718 4 45.5 167 235.39929199219 793.78281402588 88526.322746277 51589551.437284
vector 73124  IntersectionExampleScenario.node[24].veinsmobility  posx  ETV
vector 73125  IntersectionExampleScenario.node[24].veinsmobility  posy  ETV
vector 73126  IntersectionExampleScenario.node[24].veinsmobility  speed  ETV
vector 73127  IntersectionExampleScenario.node[24].veinsmobility  acceleration  ETV
vector 73128  IntersectionExampleScenario.node[24].veinsmobility  co2emission  ETV
73002	112582 4889 340 3993 9.25 47.5 154 0.973 11.648172402475 505.13192446973 2769.0020093267
73001	117471 4805 340 3993 9.25 47.5 154 -3.6408271789551 2.5 40.378400802612 249.79790495744
73000	122276 4780 325 3993 9 47.5 155 5.6500000953674 16.128105163574 2215.6476755142 32739.97115118
72999	127056 5096 310 3993 8.75 47.5 156 483.14999389648 734.98643493652 83646.5753479 45798431.565439
72998	132152 5081 310 3993 8.75 47.5 156 184.17810058594 486.85000610352 62102.204498291 26475674.880974
73009	137233 4988 419 4260 10.5 49.5 157 0.973 11.446037031996 515.09388107527 2810.3418587055
73008	142221 4856 419 4260 10.5 49.5 157 -3.5310230255127 2.5 39.869146347046 283.72280498128
73007	147077 4868 402 4260 10.25 49.5 158 5.6500000953674 15.852250099182 2187.9396271706 31749.576593944
73006	151945 5204 385 4260 10 49.5 159 486.85000610352 734.03134155273 85458.699142456 46846453.434875
73005	157149 5201 385 4260 10 49.5 159 486.67260742188 785.82187652588 91068.760902405 53888770.860585
vector 73131  IntersectionExampleScenario.node[25].veinsmobility  posx  ETV
vector 73132  IntersectionExampleScenario.node[25].veinsmobility  posy  ETV
72995	162504 5601 167 4581 6 52 185 0.973 11.90022389248 573.4152673715 3156.7030216667
72994	168105 5283 167 4581 6 52 185 -9.4253826141357 4 39.699392318726 531.42515164036
72993	173388 5501 154 4581 5.75 52 186 0 16 2216.1621396542 32077.185306082
72992	178889 6066 141 4581 5.5 52 187 184.17810058594 734.53973388672 84620.416931152 42411365.838093
72991	184955 6099 141 4581 5.5 52 187 486.85000610352 486.85000610352 91040.951141357 44323287.61884
vector 73133  IntersectionExampleScenario.node[25].veinsmobility  speed  ETV
vector 73138  IntersectionExampleScenario.node[26].veinsmobility  posx  ETV
vector 73139  IntersectionExampleScenario.node[26].veinsmobility  posy  ETV
vector 73134  IntersectionExampleScenario.node[25].veinsmobility  acceleration  ETV
vector 73135  IntersectionExampleScenario.node[25].veinsmobility  co2emission  ETV
vector 73140  IntersectionExampleScenario.node[26].veinsmobility  speed  ETV
vector 73141  IntersectionExampleScenario.node[26].veinsmobility  acceleration  ETV
vector 73142  IntersectionExampleScenario.node[26].veinsmobility  co2emission  ETV
vector 73145  IntersectionExampleScenario.node[27].veinsmobility  posx  ETV
vector 73146  IntersectionExampleScenario.node[27].veinsmobility  posy  ETV
vector 73147  IntersectionExampleScenario.node[27].veinsmobility  speed  ETV
vector 73148  IntersectionExampleScenario.node[27].veinsmobility  acceleration  ETV
vector 73149  IntersectionExampleScenario.node[27].veinsmobility  co2emission  ETV
vector 73152  IntersectionExampleScenario.node[28].veinsmobility  posx  ETV
vector 73153  IntersectionExampleScenario.node[28].veinsmobility  posy  ETV
vector 73154  IntersectionExampleScenario.node[28].veinsmobility  speed  ETV
vector 73155  IntersectionExampleScenario.node[28].veinsmobility  acceleration  ETV
vector 73156  IntersectionExampleScenario.node[28].veinsmobility  co2emission  ETV
vector 73159  IntersectionExampleScenario.node[29].veinsmobility  posx  ETV
vector 73160  IntersectionExampleScenario.node[29].veinsmobility  posy  ETV
vector 73161  IntersectionExampleScenario.node[29].veinsmobility  speed  ETV
vector 73162  IntersectionExampleScenario.node[29].veinsmobility  acceleration  ETV
vector 73163  IntersectionExampleScenario.node[29].veinsmobility  co2emission  ETV
72974	192905 6825 56 5928 3.25 62.25 237 0.973 11.648172402475 608.37591236005 2993.4635315118
72973	199730 6190 56 5928 3.25 62.25 237 -7.03919506073 4 38.341367721558 481.63103295482
72972	205920 6516 49 5928 3 62.25 238 0 15.64999961853 2212.4081838131 31409.619262413
72971	212436 7771 42 5928 2.75 62.25 239 236.58178710938 785.82187652588 122719.64040375 67184024.179324
72970	220207 7786 42 5928 2.75 62.25 239 483.14999389648 483.14999389648 115472.84854126 55790706.067919
vector 73166  IntersectionExampleScenario.node[30].veinsmobility  posx  ETV
vector 73167  IntersectionExampleScenario.node[30].veinsmobility  posy  ETV
vector 73168  IntersectionExampleScenario.node[30].veinsmobility  speed  ETV
vector 73169  IntersectionExampleScenario.node[30].veinsmobility  acceleration  ETV
vector 73170  IntersectionExampleScenario.node[30].veinsmobility  co2emission  ETV
vector 73173  IntersectionExampleScenario.node[31].veinsmobility  posx  ETV
vector 73174  IntersectionExampleScenario.node[31].veinsmobility  posy  ETV
73023	228548 5379 1063 6098 19.5 63.75 178 0.973 12.26218747632 563.86097364093 3335.7066496235
73022	233927 5495 1063 6098 19.5 63.75 178 -2.9365291595459 2.5000019073486 41.227170944214 344.99607847712
73021	239422 5567 1042 6098 19.25 63.75 179 3.2104225158691 16.5 2177.2514092922 29951.769311156
73020	244989 5927 1021 6098 19 63.75 180 486.85000610352 785.82187652588 102172.98889923 59740320.30904
73019	250916 5932 1021 6098 19 63.75 180 238.99194335938 483.14999389648 79269.490814209 35827874.241058
vector 73175  IntersectionExampleScenario.node[31].veinsmobility  speed  ETV
vector 73176  IntersectionExampleScenario.node[31].veinsmobility  acceleration  ETV
vector 73177  IntersectionExampleScenario.node[31].veinsmobility  co2emission  ETV
vector 73180  IntersectionExampleScenario.node[32].veinsmobility  posx  ETV
vector 73181  IntersectionExampleScenario.node[32].veinsmobility  posy  ETV
vector 73182  IntersectionExampleScenario.node[32].veinsmobility  speed  ETV
vector 73183  IntersectionExampleScenario.node[32].veinsmobility  acceleration  ETV
vector 73184  IntersectionExampleScenario.node[32].veinsmobility  co2emission  ETV
73030	257496 5920 1109 6587 20 67.5 191 0.973 11.519712662168 578.19064512042 3026.614166741
73029	263416 5717 1109 6587 20 67.5 191 -4.5 2.5 38.341367721558 408.77918014345
73028	269133 6014 1086 6587 19.75 67.5 192 3.6566035747528 15.471047401428 2279.6807339191 30119.378922918
73027	275147 6354 1063 6587 19.5 67.5 193 486.85000610352 809.56562805176 111736.50437164 66879073.302991
73026	281501 6354 1063 6587 19.5 67.5 193 236.41754150391 483.14999389648 85028.152923584 38457122.378844
vector 73187  IntersectionExampleScenario.node[33].veinsmobility  posx  ETV
vector 73188  IntersectionExampleScenario.node[33].veinsmobility  posy  ETV
vector 73194  IntersectionExampleScenario.node[34].veinsmobility  posx  ETV
vector 73195  IntersectionExampleScenario.node[34].veinsmobility  posy  ETV
vector 73189  IntersectionExampleScenario.node[33].veinsmobility  speed  ETV
vector 73190  IntersectionExampleScenario.node[33].veinsmobility  acceleration  ETV
vector 73191  IntersectionExampleScenario.node[33].veinsmobility  co2emission  ETV
vector 73196  IntersectionExampleScenario.node[34].veinsmobility  speed  ETV
vector 73197  IntersectionExampleScenario.node[34].veinsmobility  acceleration  ETV
vector 73198  IntersectionExampleScenario.node[34].veinsmobility  co2emission  ETV
73051	288657 5200 2011 7028 30 70.75 164 0.973 12.099024792222 553.53946535523 3176.1484873449
73050	293857 4996 2011 7028 30 70.75 164 -3.6576538085938 2.5000009536743 40.717908859253 419.14359902649
73049	298853 5273 1990 7028 29.75 70.75 165 1.7784745693207 16.27499961853 2205.481467247 32150.601722907
73048	304126 5473 1969 7028 29.5 70.75 166 236.32336425781 486.85000610352 72674.119018555 32774489.176435
73047	309599 5466 1969 7028 29.5 70.75 166 483.14999389648 785.82187652588 94203.97353363 55253082.734657
73016	315065 6508 831 7094 16.5 71.25 220 0.973 11.648172402475 592.22027313783 2979.5735322191
73015	321573 5935 831 7094 16.5 71.25 220 -7.7750906944275 4 38.511121749878 480.02721114425
73014	327508 6281 812 7094 16.25 71.25 221 0 15.64999961853 2214.2519129515 31459.955889585
73013	333789 7314 793 7094 16 71.25 222 483.14999389648 483.14999389648 107259.29864502 51822329.485682
73012	341103 7287 793 7094 16 71.25 222 184.17810058594 733.9766998291 101117.52888489 50228227.828446
73037	348390 6314 1297 7380 22 73.5 207 0.973 11.648172402475 569.58808524329 2896.2718589802
73036	354704 6583 1297 7380 22 73.5 207 -3.9754796028137 2.5 38.511121749878 357.08390955535
73035	361287 6707 1272 7380 21.75 73.5 208 0 15.64999961853 2224.025497755 30501.616778488
73034	367994 6897 1247 7380 21.5 73.5 209 483.14999389648 483.14999389648 100978.34872437 48787688.569854
73033	374891 6866 1247 7380 21.5 73.5 209 184.17810058594 735.34864807129 94473.297241211 46891617.348728
vector 73201  IntersectionExampleScenario.node[35].veinsmobility  posx  ETV
vector 73202  IntersectionExampleScenario.node[35].veinsmobility  posy  ETV
vector 73208  IntersectionExampleScenario.node[36].veinsmobility  posx  ETV
vector 73209  IntersectionExampleScenario.node[36].veinsmobility  posy  ETV
73065	382065 5297 2228 7472 32.5 74.25 168 0.973 11.36141391502 516.63845613286 2783.3305945097
73064	387362 4976 2228 7472 32.5 74.25 168 -3.2413291931152 2.5 37.15309715271 272.20873639002
73063	392338 5260 2205 7472 32.25 74.25 169 5.6500000953674 15.25 2252.101688385 31273.996587026
73062	397598 5598 2182 7472 32 74.25 170 486.85000610352 734.40232849121 91192.349655151 49886679.145148
73061	403196 5586 2182 7472 32 74.25 170 486.72219848633 801.41563415527 98227.349876404 58769241.94398
vector 73203  IntersectionExampleScenario.node[35].veinsmobility  speed  ETV
vector 73210  IntersectionExampleScenario.node[36].veinsmobility  speed  ETV
vector 73204  IntersectionExampleScenario.node[35].veinsmobility  acceleration  ETV
vector 73205  IntersectionExampleScenario.node[35].veinsmobility  co2emission  ETV
vector 73211  IntersectionExampleScenario.node[36].veinsmobility  acceleration  ETV
vector 73212  IntersectionExampleScenario.node[36].veinsmobility  co2emission  ETV
73058	409276 5320 2161 7538 31.75 74.75 173 0.96333723109819 12.099024792222 542.29561812694 2954.0109928639
73057	414596 5304 2161 7538 31.75 74.75 173 -2.276252746582 2.5000019073486 40.208654403687 275.52092705046
73056	419900 5588 2139 7538 31.5 74.75 174 4.8870992660522 16.27499961853 2216.1927042007 30491.212155444
73055	425488 5777 2116 7538 31.25 74.75 175 483.14999389648 483.14999389648 84551.248931885 40850935.40538
73054	431265 5741 2116 7538 31.25 74.75 175 184.17810058594 732.91683959961 78008.882171631 38834952.689722
vector 73215  IntersectionExampleScenario.node[37].veinsmobility  posx  ETV
vector 73216  IntersectionExampleScenario.node[37].veinsmobility  posy  ETV
vector 73217  IntersectionExampleScenario.node[37].veinsmobility  speed  ETV
vector 73218  IntersectionExampleScenario.node[37].veinsmobility  acceleration  ETV
vector 73219  IntersectionExampleScenario.node[37].veinsmobility  co2emission  ETV
vector 73222  IntersectionExampleScenario.node[38].veinsmobility  posx  ETV
vector 73223  IntersectionExampleScenario.node[38].veinsmobility  posy  ETV
73072	437561 5482 2367 7805 34 76.75 172 0.973 11.36141391502 543.06594770631 2914.5657726745
73071	443043 5054 2367 7805 34 76.75 172 -4.5 2.5 38.171613693237 332.94814893217
73070	448097 5405 2342 7805 33.75 76.75 173 5.6500000953674 15.517234802246 2296.1936326027 31886.370747958
73069	453502 5740 2317 7805 33.5 76.75 174 486.85000610352 733.10377502441 92921.497909546 50578677.252407
73068	459242 5729 2317 7805 33.5 76.75 174 486.85000610352 813.91251373291 101332.91062927 61217220.663701
vector 73224  IntersectionExampleScenario.node[38].veinsmobility  speed  ETV
vector 73225  IntersectionExampleScenario.node[38].veinsmobility  acceleration  ETV
vector 73226  IntersectionExampleScenario.node[38].veinsmobility  co2emission  ETV
73100	465218 5313 2678 8082 37 78.75 168 0.973 11.648172402475 508.91259507885 2741.6215847442
73099	470531 5262 2678 8082 37 78.75 168 -3.1345367431641 2.5 38.511121749878 249.74776611606
73098	475793 5274 2649 8082 36.75 78.75 169 5.6500000953674 15.64999961853 2293.5165042877 32479.612314297
73097	481067 5605 2620 8082 36.5 78.75 170 486.85000610352 733.70736694336 90961.225540161 49620220.824247
73096	486672 5600 2620 8082 36.5 78.75 170 486.85000610352 812.65731048584 99032.494499207 59859771.29094
vector 73229  IntersectionExampleScenario.node[39].veinsmobility  posx  ETV
vector 73230  IntersectionExampleScenario.node[39].veinsmobility  posy  ETV
vector 73236  IntersectionExampleScenario.node[40].veinsmobility  posx  ETV
vector 73237  IntersectionExampleScenario.node[40].veinsmobility  posy  ETV
vector 73231  IntersectionExampleScenario.node[39].veinsmobility  speed  ETV
vector 73232  IntersectionExampleScenario.node[39].veinsmobility  acceleration  ETV
vector 73233  IntersectionExampleScenario.node[39].veinsmobility  co2emission  ETV
vector 73238  IntersectionExampleScenario.node[40].veinsmobility  speed  ETV
vector 73239  IntersectionExampleScenario.node[40].veinsmobility  acceleration  ETV
vector 73240  IntersectionExampleScenario.node[40].veinsmobility  co2emission  ETV
vector 73243  IntersectionExampleScenario.node[41].veinsmobility  posx  ETV
vector 73244  IntersectionExampleScenario.node[41].veinsmobility  posy  ETV
vector 73245  IntersectionExampleScenario.node[41].veinsmobility  speed  ETV
vector 73246  IntersectionExampleScenario.node[41].veinsmobility  acceleration  ETV
vector 73247  IntersectionExampleScenario.node[41].veinsmobility  co2emission  ETV
vector 73250  IntersectionExampleScenario.node[42].veinsmobility  posx  ETV
vector 73251  IntersectionExampleScenario.node[42].veinsmobility  posy  ETV
vector 73252  IntersectionExampleScenario.node[42].veinsmobility  speed  ETV
vector 73253  IntersectionExampleScenario.node[42].veinsmobility  acceleration  ETV
vector 73254  IntersectionExampleScenario.node[42].veinsmobility  co2emission  ETV
73044	493876 6980 1717 9011 26.5 85.25 236 0.973 10.916047529558 575.50069498962 2556.4894331743
73043	500856 6196 1717 9011 26.5 85.25 236 -9.268856048584 4 34.606801986694 476.05911329532
73042	507052 6644 1694 9011 26.25 85.25 237 0 14.625 2183.7568573952 29158.5670466
73041	513696 7830 1671 9011 26 85.25 238 184.17810058594 483.36395263672 99765.720336914 43886422.938176
73040	521526 7791 1671 9011 26 85.25 238 486.85000610352 735.21826171875 124701.99336243 66471444.0484
73093	529317 6024 2649 9245 36.75 86.75 201 0.973 11.648172402475 558.58694526525 2785.317078876
73092	535341 6365 2649 9245 36.75 86.75 201 -2.1222877502441 2.5 38.850629806519 294.02243157208
73091	541706 6407 2620 9245 36.5 86.75 202 1.0694476366043 15.64999961853 2192.2011982203 29001.467042581
73090	548113 6672 2592 9245 36.25 86.75 203 184.17810058594 483.17031860352 82922.446350098 35716541.391385
73089	554785 6692 2592 9245 36.25 86.75 203 486.85000610352 734.88513183594 107089.51145935 57515826.817477
73107	561477 5731 3233 9464 41.75 88.25 187 0.973 11.648172402475 550.02004309584 2945.8511180709
73106	567208 5607 3233 9464 41.75 88.25 187 -3.7629814147949 2.5 38.511121749878 333.48134306325
73105	572815 5917 3202 9464 41.5 88.25 188 3.8373255729675 15.64999961853 2207.3252160549 29144.256541437
73104	578732 6217 3171 9464 41.25 88.25 189 184.17810058594 486.85000610352 76232.250427246 32559352.811856
73103	584949 6234 3171 9464 41.25 88.25 189 237.10186767578 486.85000610352 83642.990600586 38038298.757431
vector 73257  IntersectionExampleScenario.node[43].veinsmobility  posx  ETV
vector 73258  IntersectionExampleScenario.node[43].veinsmobility  posy  ETV
vector 73259  IntersectionExampleScenario.node[43].veinsmobility  speed  ETV
vector 73260  IntersectionExampleScenario.node[43].veinsmobility  acceleration  ETV
vector 73261  IntersectionExampleScenario.node[43].veinsmobility  co2emission  ETV
73114	591584 5619 3547 9690 44.25 90 184 0.973 11.810082123732 579.67667000277 3205.8470188552
73113	597203 5553 3547 9690 44.25 90 184 -4.5 2.5 41.227170944214 389.0366556436
73112	602756 5768 3514 9690 44 90 185 4.0579876899719 16.016914367676 2243.3720650673 30586.719291652
73111	608524 6113 3481 9690 43.75 90 186 168.58435058594 483.14999389648 73699.273986816 31187124.594627
73110	614637 6105 3481 9690 43.75 90 186 486.85000610352 731.52546691895 98301.690338135 52886702.567334
vector 73264  IntersectionExampleScenario.node[44].veinsmobility  posx  ETV
vector 73265  IntersectionExampleScenario.node[44].veinsmobility  posy  ETV
vector 73266  IntersectionExampleScenario.node[44].veinsmobility  speed  ETV
vector 73267  IntersectionExampleScenario.node[44].veinsmobility  acceleration  ETV
vector 73268  IntersectionExampleScenario.node[44].veinsmobility  co2emission  ETV
73128	621143 5507 3993 10017 47.5 92.5 181 0.973 12.099024792222 546.56603056443 3114.4796858075
73127	626650 5551 3993 10017 47.5 92.5 181 -2.9175109863281 2.5000019073486 40.038900375366 289.05344251791
73126	632201 5684 3958 10017 47.25 92.5 182 5.6500000953674 16.27499961853 2267.1657233238 30510.513334484
73125	637885 6006 3923 10017 47 92.5 183 165.1328125 483.32080078125 71871.292907715 30265936.81129
73124	643891 6034 3923 10017 47 92.5 183 486.85000610352 734.49281311035 97152.248153687 52547786.393531
73079	649925 6843 2367 10115 34 93.25 238 0.973 12.553400930962 651.80451498706 3666.4069450968
73078	656768 6203 2367 10115 34 93.25 238 -32.188018798828 4 42.585195541382 1467.9811422195
73077	662971 6412 2342 10115 33.75 93.25 239 0 16.89999961853 2204.3669166565 33615.0105323
73076	669383 7905 2317 10115 33.5 93.25 240 238.02075195312 785.82187652588 123312.92128754 67314059.383823
73075	677288 7924 2317 10115 33.5 93.25 240 483.14999389648 483.14999389648 115955.99853516 56024139.984521
vector 73271  IntersectionExampleScenario.node[45].veinsmobility  posx  ETV
vector 73272  IntersectionExampleScenario.node[45].veinsmobility  posy  ETV
vector 73273  IntersectionExampleScenario.node[45].veinsmobility  speed  ETV
vector 73274  IntersectionExampleScenario.node[45].veinsmobility  acceleration  ETV
vector 73275  IntersectionExampleScenario.node[45].veinsmobility  co2emission  ETV
vector 73278  IntersectionExampleScenario.node[46].veinsmobility  posx  ETV
vector 73279  IntersectionExampleScenario.node[46].veinsmobility  posy  ETV
73086	685767 7305 2649 10459 36.75 96 238 0.973 11.648172402475 603.04215599936 2950.8251358823
73085	693072 7553 2649 10459 36.75 96 238 -3.65620470047 2.5000009536743 37.662351608276 371.13015240289
73084	700625 7602 2620 10459 36.5 96 239 0 15.64999961853 2247.2518554367 30209.85888685
73083	708227 7920 2592 10459 36.25 96 240 486.85000610352 800.04531860352 133654.99088287 76645961.897148
73082	716147 7928 2592 10459 36.25 96 240 235.35125732422 483.14999389648 107587.07528687 49316418.308755
vector 73280  IntersectionExampleScenario.node[46].veinsmobility  speed  ETV
vector 73285  IntersectionExampleScenario.node[47].veinsmobility  posx  ETV
vector 73286  IntersectionExampleScenario.node[47].veinsmobility  posy  ETV
vector 73281  IntersectionExampleScenario.node[46].veinsmobility  acceleration  ETV
vector 73282  IntersectionExampleScenario.node[46].veinsmobility  co2emission  ETV
vector 73287  IntersectionExampleScenario.node[47].veinsmobility  speed  ETV
vector 73288  IntersectionExampleScenario.node[47].veinsmobility  acceleration  ETV
vector 73289  IntersectionExampleScenario.node[47].veinsmobility  co2emission  ETV
vector 73292  IntersectionExampleScenario.node[48].veinsmobility  posx  ETV
vector 73293  IntersectionExampleScenario.node[48].veinsmobility  posy  ETV
vector 73294  IntersectionExampleScenario.node[48].veinsmobility  speed  ETV
vector 73295  IntersectionExampleScenario.node[48].veinsmobility  acceleration  ETV
vector 73296  IntersectionExampleScenario.node[48].veinsmobility  co2emission  ETV
vector 73299  IntersectionExampleScenario.node[49].veinsmobility  posx  ETV
vector 73300  IntersectionExampleScenario.node[49].veinsmobility  posy  ETV
vector 73301  IntersectionExampleScenario.node[49].veinsmobility  speed  ETV
vector 73306  IntersectionExampleScenario.node[50].veinsmobility  posx  ETV
vector 73307  IntersectionExampleScenario.node[50].veinsmobility  posy  ETV
vector 73302  IntersectionExampleScenario.node[49].veinsmobility  acceleration  ETV
vector 73303  IntersectionExampleScenario.node[49].veinsmobility  co2emission  ETV
vector 73308  IntersectionExampleScenario.node[50].veinsmobility  speed  ETV
vector 73309  IntersectionExampleScenario.node[50].veinsmobility  acceleration  ETV
vector 73310  IntersectionExampleScenario.node[50].veinsmobility  co2emission  ETV
vector 73313  IntersectionExampleScenario.node[51].veinsmobility  posx  ETV
vector 73314  IntersectionExampleScenario.node[51].veinsmobility  posy  ETV
vector 73315  IntersectionExampleScenario.node[51].veinsmobility  speed  ETV
vector 73316  IntersectionExampleScenario.node[51].veinsmobility  acceleration  ETV
vector 73317  IntersectionExampleScenario.node[51].veinsmobility  co2emission  ETV
73135	726327 6250 4647 11485 52.5 103.5 205 0.973 11.450879080643 569.92178070293 2845.5250458003
73134	732577 5694 4647 11485 52.5 103.5 205 -7.2591600418091 4 37.32285118103 473.54725534929
73133	738271 6096 4614 11485 52.25 103.5 206 0 15.375 2213.1246509552 30961.985102098
73132	744367 6890 4581 11485 52 103.5 207 486.85000610352 486.85000610352 100777.95126343 49063746.187699
73131	751257 6883 4581 11485 52 103.5 207 236.18798828125 785.82187652588 106754.32949066 59279271.692335
vector 73320  IntersectionExampleScenario.node[52].veinsmobility  posx  ETV
vector 73321  IntersectionExampleScenario.node[52].veinsmobility  posy  ETV
vector 73322  IntersectionExampleScenario.node[52].veinsmobility  speed  ETV
vector 73323  IntersectionExampleScenario.node[52].veinsmobility  acceleration  ETV
vector 73324  IntersectionExampleScenario.node[52].veinsmobility  co2emission  ETV
73142	758541 6524 4717 11664 53 104.75 208 0.973 11.540399415364 582.19053276788 2877.257342806
73141	765065 6019 4717 11664 53 104.75 208 -4.5 2.5 38.171613693237 463.47010881035
73140	771084 6393 4682 11664 52.75 104.75 209 0 15.499891281128 2277.5940740174 31442.533774367
73139	777477 6998 4647 11664 52.5 104.75 210 486.85000610352 732.53344726562 110405.46606445 59060654.325103
73138	784475 6984 4647 11664 52.5 104.75 210 486.85000610352 809.56562805176 119401.7073822 70257725.963372
73121	791459 7110 3683 11664 45.25 104.75 239 0.973 10.756497587458 570.5554070519 2473.609577909
73120	798569 6404 3683 11664 45.25 104.75 239 -7.9770193099976 4 33.079023361206 451.7348892887
73119	804973 6894 3648 11664 45 104.75 240 0 14.39999961853 2218.0572354794 29178.217988522
73118	811867 8024 3613 11664 44.75 104.75 241 483.14999389648 483.14999389648 116439.14852905 56257573.901123
73117	819891 7987 3613 11664 44.75 104.75 241 184.17810058594 735.52375793457 110285.17474365 54963222.746226
73163	827878 5729 5407 11664 58 104.75 188 0.973 12.099024792222 565.02784179518 3163.9869482938
73162	833607 5576 5407 11664 58 104.75 188 -2.1327362060547 2.5 40.887662887573 328.72891646271
73161	839183 5978 5374 11664 57.75 104.75 189 1.9299751520157 16.27499961853 2192.7641373873 29853.477201568
73160	845161 6330 5340 11664 57.5 104.75 190 235.37481689453 483.14999389648 83815.830841064 37950143.743466
73159	851491 6311 5340 11664 57.5 104.75 190 184.17810058594 483.28317260742 77054.0027771 33032752.707096
vector 73327  IntersectionExampleScenario.node[53].veinsmobility  posx  ETV
vector 73328  IntersectionExampleScenario.node[53].veinsmobility  posy  ETV
vector 73329  IntersectionExampleScenario.node[53].veinsmobility  speed  ETV
vector 73330  IntersectionExampleScenario.node[53].veinsmobility  acceleration  ETV
vector 73331  IntersectionExampleScenario.node[53].veinsmobility  co2emission  ETV
73156	858203 6119 5306 11853 57.25 106 196 0.973 11.648172402475 577.44499857747 2985.9713834795
73155	864322 6065 5306 11853 57.25 106 196 -3.6238565444946 2.5000019073486 39.869146347046 378.30734791242
73154	870387 6391 5271 11853 57 106 197 0 15.679890632629 2282.7220721319 31939.750178111
73153	876778 6613 5236 11853 56.75 106 198 486.85000610352 486.85000610352 96396.301208496 46930539.831713
73152	883391 6596 5236 11853 56.75 106 198 238.09094238281 803.9313583374 104671.15311432 59790060.248365
vector 73334  IntersectionExampleScenario.node[54].veinsmobility  posx  ETV
vector 73335  IntersectionExampleScenario.node[54].veinsmobility  posy  ETV
vector 73336  IntersectionExampleScenario.node[54].veinsmobility  speed  ETV
vector 73337  IntersectionExampleScenario.node[54].veinsmobility  acceleration  ETV
vector 73338  IntersectionExampleScenario.node[54].veinsmobility  co2emission  ETV
73191	890388 5230 6718 12372 68.5 109.25 164 0.973 11.648172402475 550.99283435772 3277.9689506728
73190	895618 4904 6718 12372 68.5 109.25 164 -3.4095115661621 2.5 38.511121749878 323.88898259745
73189	900522 5260 6683 12372 68.25 109.25 165 5.6500000953674 15.64999961853 2206.6349058151 30554.670812156
73188	905782 5573 6650 12372 68 109.25 166 237.30810546875 486.85000610352 72459.782958984 32597291.265876
73187	911355 5567 6650 12372 68 109.25 166 483.14999389648 785.82187652588 94869.37802887 55994285.172073
vector 73341  IntersectionExampleScenario.node[55].veinsmobility  posx  ETV
vector 73342  IntersectionExampleScenario.node[55].veinsmobility  posy  ETV
73198	917076 5310 6753 12454 68.75 109.75 165 0.973 11.990504229548 548.90295449883 3112.4480687376
73197	922386 5084 6753 12454 68.75 109.75 165 -4.9146194458008 2.5 41.057416915894 294.33123359186
73196	927470 5351 6718 12454 68.5 109.75 166 5.6500000953674 16.125 2318.3342857361 33406.509929278
73195	932821 5623 6683 12454 68.25 109.75 167 486.85000610352 486.85000610352 81303.951019287 39582829.04998
73194	938444 5603 6683 12454 68.25 109.75 167 236.35980224609 810.23281097412 89695.181724548 52821919.842456
vector 73343  IntersectionExampleScenario.node[55].veinsmobility  speed  ETV
vector 73344  IntersectionExampleScenario.node[55].veinsmobility  acceleration  ETV
vector 73345  IntersectionExampleScenario.node[55].veinsmobility  co2emission  ETV
73205	944294 4838 7538 12746 74.75 111.5 148 0.973 12.099024792222 490.87629047243 2825.2423136305
73204	949132 4690 7538 12746 74.75 111.5 148 -3.2363471984863 2.5 44.112981796265 201.9183032701
73203	953822 4802 7505 12746 74.5 111.5 149 5.6500000953674 16.739950180054 2236.022649765 34478.178040271
73202	958624 5075 7472 12746 74.25 111.5 150 486.85000610352 486.85000610352 73027.500915527 35553439.266449
73201	963699 5057 7472 12746 74.25 111.5 150 237.57666015625 790.93376922607 79065.812667847 45668944.46796
73212	968756 5297 7538 13258 74.75 114.75 161 0.973 11.36141391502 498.50895740382 2630.5455224901
73211	974053 5100 7538 13258 74.75 114.75 161 -3.3552112579346 2.5 37.492597579956 266.82526041333
73210	979153 5174 7505 13258 74.5 114.75 162 5.6500000953674 15.25 2177.710706234 30563.993691847
73209	984327 5506 7472 13258 74.25 114.75 163 238.3857421875 483.14999389648 70553.835876465 31459827.219382
73208	989833 5508 7472 13258 74.25 114.75 163 184.17810058594 483.19940185547 64795.090911865 27513185.188692
73149	995341 6894 5001 13375 55 115.5 243 0.973 12.26218747632 622.53156806825 3369.675458689
73148	1002235 6678 5001 13375 55 115.5 243 -8.5829010009766 4 42.585195541382 499.32165272779
73147	1008913 6776 4964 13375 54.75 115.5 244 0 16.5 2184.4773750305 31321.232009707
73146	1015689 8213 4927 13375 54.5 115.5 245 184.17810058594 483.36395263672 103557.07644653 45784409.347628
73145	1023902 8165 4927 13375 54.5 115.5 245 486.85000610352 734.72305297852 127062.01585388 66929008.915514
73184	1032067 6580 6257 13726 65 117.75 212 0.973 11.200708441096 555.83313440867 2667.5989854287
73183	1038647 6785 6257 13726 65 117.75 212 -3.8502941131592 2.5000009536743 36.474081039429 323.45528209775
73182	1045432 7065 6224 13726 64.75 117.75 213 0 15.02499961853 2215.4666993469 28954.680480294
73181	1052497 7210 6191 13726 64.5 117.75 214 184.17810058594 733.39572143555 96398.042510986 47675989.42281
73180	1059707 7237 6191 13726 64.5 117.75 214 486.85000610352 486.85000610352 104185.90130615 50722906.6868
vector 73348  IntersectionExampleScenario.node[56].veinsmobility  posx  ETV
vector 73349  IntersectionExampleScenario.node[56].veinsmobility  posy  ETV
vector 73350  IntersectionExampleScenario.node[56].veinsmobility  speed  ETV
vector 73355  IntersectionExampleScenario.node[57].veinsmobility  posx  ETV
vector 73356  IntersectionExampleScenario.node[57].veinsmobility  posy  ETV
vector 73351  IntersectionExampleScenario.node[56].veinsmobility  acceleration  ETV
vector 73352  IntersectionExampleScenario.node[56].veinsmobility  co2emission  ETV
vector 73357  IntersectionExampleScenario.node[57].veinsmobility  speed  ETV
vector 73362  IntersectionExampleScenario.node[58].veinsmobility  posx  ETV
vector 73363  IntersectionExampleScenario.node[58].veinsmobility  posy  ETV
vector 73358  IntersectionExampleScenario.node[57].veinsmobility  acceleration  ETV
vector 73359  IntersectionExampleScenario.node[57].veinsmobility  co2emission  ETV
vector 73364  IntersectionExampleScenario.node[58].veinsmobility  speed  ETV
vector 73365  IntersectionExampleScenario.node[58].veinsmobility  acceleration  ETV
vector 73366  IntersectionExampleScenario.node[58].veinsmobility  co2emission  ETV
vector 73369  IntersectionExampleScenario.node[59].veinsmobility  posx  ETV
vector 73370  IntersectionExampleScenario.node[59].veinsmobility  posy  ETV
vector 73371  IntersectionExampleScenario.node[59].veinsmobility  speed  ETV
vector 73372  IntersectionExampleScenario.node[59].veinsmobility  acceleration  ETV
vector 73373  IntersectionExampleScenario.node[59].veinsmobility  co2emission  ETV
vector 73376  IntersectionExampleScenario.node[60].veinsmobility  posx  ETV
vector 73377  IntersectionExampleScenario.node[60].veinsmobility  posy  ETV
vector 73378  IntersectionExampleScenario.node[60].veinsmobility  speed  ETV
vector 73383  IntersectionExampleScenario.node[61].veinsmobility  posx  ETV
vector 73384  IntersectionExampleScenario.node[61].veinsmobility  posy  ETV
vector 73379  IntersectionExampleScenario.node[60].veinsmobility  acceleration  ETV
vector 73380  IntersectionExampleScenario.node[60].veinsmobility  co2emission  ETV
73170	1069103 7605 6040 14988 63.25 126.5 254 0.973 11.450879080643 619.79179362457 2880.5736789013
73169	1076708 7070 6040 14988 63.25 126.5 254 -35.921535491943 4 37.32285118103 1628.2984619956
73168	1083778 7096 6011 14988 63 126.5 255 0 15.375 2201.9787464142 31138.336220661
73167	1090874 8684 5982 14988 62.75 126.5 256 483.14999389648 785.82187652588 139424.16155243 78048659.07888
73166	1099558 8688 5982 14988 62.75 126.5 256 483.14999389648 733.21885681152 132227.39201355 69436317.224275
vector 73385  IntersectionExampleScenario.node[61].veinsmobility  speed  ETV
vector 73386  IntersectionExampleScenario.node[61].veinsmobility  acceleration  ETV
vector 73387  IntersectionExampleScenario.node[61].veinsmobility  co2emission  ETV
vector 73390  IntersectionExampleScenario.node[62].veinsmobility  posx  ETV
vector 73391  IntersectionExampleScenario.node[62].veinsmobility  posy  ETV
vector 73392  IntersectionExampleScenario.node[62].veinsmobility  speed  ETV
vector 73397  IntersectionExampleScenario.node[63].veinsmobility  posx  ETV
vector 73398  IntersectionExampleScenario.node[63].veinsmobility  posy  ETV
vector 73393  IntersectionExampleScenario.node[62].veinsmobility  acceleration  ETV
vector 73394  IntersectionExampleScenario.node[62].veinsmobility  co2emission  ETV
vector 73399  IntersectionExampleScenario.node[63].veinsmobility  speed  ETV
vector 73400  IntersectionExampleScenario.node[63].veinsmobility  acceleration  ETV
vector 73401  IntersectionExampleScenario.node[63].veinsmobility  co2emission  ETV
73177	1109295 8436 6160 15433 64.25 129.5 262 0.973 10.31563081972 605.7079670333 2449.4082201424
73176	1117731 8461 6160 15433 64.25 129.5 262 -4.5 2.5 33.588277816772 378.78148193948
73175	1126192 8606 6129 15433 64 129.5 263 0 14.412044525146 2290.4825770082 29843.428464857
73174	1134798 8955 6098 15433 63.75 129.5 264 483.02395629883 807.99687957764 146589.79545593 83944479.410165
73173	1143753 8967 6098 15433 63.75 129.5 264 483.14999389648 733.23469543457 136636.46142578 71921976.343749
vector 73404  IntersectionExampleScenario.node[64].veinsmobility  posx  ETV
vector 73405  IntersectionExampleScenario.node[64].veinsmobility  posy  ETV
vector 73406  IntersectionExampleScenario.node[64].veinsmobility  speed  ETV
vector 73411  IntersectionExampleScenario.node[65].veinsmobility  posx  ETV
vector 73412  IntersectionExampleScenario.node[65].veinsmobility  posy  ETV
vector 73407  IntersectionExampleScenario.node[64].veinsmobility  acceleration  ETV
vector 73408  IntersectionExampleScenario.node[64].veinsmobility  co2emission  ETV
vector 73418  IntersectionExampleScenario.node[66].veinsmobility  posx  ETV
vector 73419  IntersectionExampleScenario.node[66].veinsmobility  posy  ETV
vector 73413  IntersectionExampleScenario.node[65].veinsmobility  speed  ETV
73219	1153507 7130 7772 16151 76.5 134.75 234 0.93438186594183 12.26218747632 654.10934988434 3607.0441265516
73218	1160637 6490 7772 16151 76.5 134.75 234 -11.508010864258 4 41.057416915894 661.38310868922
73217	1167127 6768 7738 16151 76.25 134.75 235 0 16.5 2271.3698444366 33360.00289306
73216	1173895 8011 7703 16151 76 134.75 236 486.85000610352 734.55892944336 122835.52445984 64973405.910904
73215	1181906 8087 7703 16151 76 134.75 236 486.63604736328 807.61376190186 131099.57125092 75212875.452572
vector 73414  IntersectionExampleScenario.node[65].veinsmobility  acceleration  ETV
vector 73415  IntersectionExampleScenario.node[65].veinsmobility  co2emission  ETV
vector 73420  IntersectionExampleScenario.node[66].veinsmobility  speed  ETV
73226	1190240 7126 7875 16188 77.25 135 232 0.973 11.200708441096 625.98846884472 2906.2006993199
73225	1197366 6874 7875 16188 77.25 135 232 -8.946741104126 4 39.869146347046 516.88493902365
73224	1204240 6876 7840 16188 77 135 233 0 15.683166503906 2267.2173614502 32542.952225002
73223	1211116 8033 7805 16188 76.75 135 234 483.14999389648 483.14999389648 113057.09857178 54623536.484908
73222	1219149 7998 7805 16188 76.75 135 234 168.58435058594 731.43745422363 105280.03981018 51808964.430876
vector 73421  IntersectionExampleScenario.node[66].veinsmobility  acceleration  ETV
vector 73422  IntersectionExampleScenario.node[66].veinsmobility  co2emission  ETV
73233	1227316 7360 8215 16372 79.75 136.25 227 0.973 11.810082123732 630.83023967475 3252.3080290468
73232	1234676 7047 8215 16372 79.75 136.25 227 -4.5 2.5 40.548154830933 475.49155831918
73231	1241723 7320 8180 16372 79.5 136.25 228 0 16.026435852051 2276.2844165042 32549.40547431
73230	1249043 7877 8147 16372 79.25 136.25 229 237.58825683594 483.14999389648 102770.32550049 47133716.98731
73229	1256920 7854 8147 16372 79.25 136.25 229 160.78747558594 483.14999389648 93800.606414795 40766920.071786
73240	1264774 7537 8250 16582 80 137.75 232 0.973 12.099024792222 626.92824416706 3084.2166810535
73239	1272311 7794 8250 16582 80 137.75 232 -4.5 2.5 40.038900375366 442.35527632413
73238	1280105 7858 8215 16582 79.75 137.75 233 0 16.27499961853 2289.4200182445 32091.295712999
73237	1287963 8049 8180 16582 79.5 137.75 234 236.98651123047 486.85000610352 105651.38742065 48773180.963294
73236	1296012 8028 8180 16582 79.5 137.75 234 483.05197143555 806.36157989502 130323.83854675 74934402.436647
73254	1304040 6781 9011 16752 85.25 139 216 0.973 11.648172402475 579.96182510253 2969.5339343397
73253	1310821 7106 9011 16752 85.25 139 216 -3.8332073688507 2.5000019073486 38.001859664917 351.22173294343
73252	1317927 7284 8972 16752 85 139 217 0 15.64999961853 2239.6321917325 29616.651529949
73251	1325211 7537 8933 16752 84.75 139 218 486.85000610352 486.85000610352 106133.30133057 51670998.400572
73250	1332748 7521 8933 16752 84.75 139 218 237.4033203125 792.50252532959 114329.26289368 64267948.972187
73247	1340269 7271 8674 16785 83 139.25 226 0.973 11.648172402475 604.76020013395 2901.5402936809
73246	1347540 7730 8674 16785 83 139.25 226 -3.8996961116791 2.5 39.869146347046 351.09076885951
73245	1355270 7769 8637 16785 82.75 139.25 227 0 15.743977546692 2270.636404112 30752.463842211
73244	1363039 7857 8600 16785 82.5 139.25 228 238.24005126953 483.14999389648 102211.66671753 46831772.599249
73243	1370896 7845 8600 16785 82.5 139.25 228 161.234375 483.14999389648 92579.737487793 39869319.837654
73268	1378741 6282 9885 17013 91.5 141 199 0.973 11.648172402475 568.54779323739 3027.7257268814
73267	1385023 6490 9885 17013 91.5 141 199 -2.4227228164673 2.5 41.057416915894 312.98247993553
73266	1391513 6648 9852 17013 91.25 141 200 1.9659558534622 15.97981262207 2187.8793083429 28841.470927619
73265	1398161 6986 9819 17013 91 141 201 236.1513671875 483.14999389648 89211.468902588 40580267.871054
73264	1405147 6958 9819 17013 91 141 201 184.17810058594 483.14999389648 81357.550598145 34709686.838578
73289	1412105 5782 10594 17044 97 141.25 178 0.973 11.648172402475 535.45328068934 2888.5819299125
73288	1417887 5825 10594 17044 97 141.25 178 -4.0477199554443 2.5000019073486 38.171613693237 296.92696074801
73287	1423712 6037 10560 17044 96.75 141.25 179 4.8768849372864 15.64999961853 2216.0133686066 29663.310431157
73286	1429749 6286 10525 17044 96.5 141.25 180 486.85000610352 486.85000610352 87633.001098633 42664127.119739
73285	1436035 6270 10525 17044 96.5 141.25 180 236.99157714844 785.82187652588 94314.472969055 53579489.78551
vector 73425  IntersectionExampleScenario.node[67].veinsmobility  posx  ETV
vector 73426  IntersectionExampleScenario.node[67].veinsmobility  posy  ETV
vector 73427  IntersectionExampleScenario.node[67].veinsmobility  speed  ETV
vector 73428  IntersectionExampleScenario.node[67].veinsmobility  acceleration  ETV
vector 73429  IntersectionExampleScenario.node[67].veinsmobility  co2emission  ETV
73324	1442706 5307 11664 17522 104.75 145.25 163 0.973 11.810082123732 558.33240940068 3595.5615393986
73323	1448013 5201 11664 17522 104.75 145.25 163 -3.6628570556641 2.5 38.511121749878 366.14027769925
73322	1453214 5402 11627 17522 104.5 145.25 164 5.6500000953674 15.875 2190.5023536682 30547.578492132
73321	1458616 5767 11590 17522 104.25 145.25 165 486.85000610352 735.06346130371 88616.448608398 48544048.676078
73320	1464383 5768 11590 17522 104.25 145.25 165 486.85000610352 785.82187652588 94466.528114319 55832665.349202
73331	1470151 5567 11853 17693 106 146.75 164 0.973 11.54047740176 525.79177860328 2878.5672025484
73330	1475718 5269 11853 17693 106 146.75 164 -4.5 2.5 37.492597579956 275.9112247456
73329	1480987 5530 11814 17693 105.75 146.75 165 5.6500000953674 15.5 2299.6953859329 32658.129508934
73328	1486517 5811 11775 17693 105.5 146.75 166 486.85000610352 486.85000610352 80817.101013184 39345806.121537
73327	1492328 5792 11775 17693 105.5 146.75 166 237.81506347656 807.09531402588 88384.676368713 51711311.927411
vector 73432  IntersectionExampleScenario.node[68].veinsmobility  posx  ETV
vector 73433  IntersectionExampleScenario.node[68].veinsmobility  posy  ETV
vector 73434  IntersectionExampleScenario.node[68].veinsmobility  speed  ETV
vector 73439  IntersectionExampleScenario.node[69].veinsmobility  posx  ETV
vector 73440  IntersectionExampleScenario.node[69].veinsmobility  posy  ETV
vector 73446  IntersectionExampleScenario.node[70].veinsmobility  posx  ETV
vector 73447  IntersectionExampleScenario.node[70].veinsmobility  posy  ETV
vector 73435  IntersectionExampleScenario.node[68].veinsmobility  acceleration  ETV
vector 73436  IntersectionExampleScenario.node[68].veinsmobility  co2emission  ETV
73261	1498829 7234 9657 17832 89.75 148 234 0.973 11.810082123732 614.4919259185 3094.8678370552
73260	1506063 6518 9657 17832 89.75 148 234 -6.9388580322266 4 39.869146347046 481.49561179219
73259	1512581 6877 9624 17832 89.5 148 235 0 15.875 2183.3810305595 31318.381281911
73258	1519458 8182 9591 17832 89.25 148 236 184.17810058594 483.36395263672 99465.534790039 43929337.060262
73257	1527640 8134 9591 17832 89.25 148 236 486.85000610352 734.37205505371 122971.36177063 65127218.654574
vector 73441  IntersectionExampleScenario.node[69].veinsmobility  speed  ETV
vector 73448  IntersectionExampleScenario.node[70].veinsmobility  speed  ETV
vector 73442  IntersectionExampleScenario.node[69].veinsmobility  acceleration  ETV
vector 73443  IntersectionExampleScenario.node[69].veinsmobility  co2emission  ETV
vector 73449  IntersectionExampleScenario.node[70].veinsmobility  acceleration  ETV
vector 73450  IntersectionExampleScenario.node[70].veinsmobility  co2emission  ETV
vector 73453  IntersectionExampleScenario.node[71].veinsmobility  posx  ETV
vector 73454  IntersectionExampleScenario.node[71].veinsmobility  posy  ETV
vector 73460  IntersectionExampleScenario.node[72].veinsmobility  posx  ETV
vector 73461  IntersectionExampleScenario.node[72].veinsmobility  posy  ETV
vector 73455  IntersectionExampleScenario.node[71].veinsmobility  speed  ETV
vector 73462  IntersectionExampleScenario.node[72].veinsmobility  speed  ETV
vector 73456  IntersectionExampleScenario.node[71].veinsmobility  acceleration  ETV
vector 73457  IntersectionExampleScenario.node[71].veinsmobility  co2emission  ETV
vector 73463  IntersectionExampleScenario.node[72].veinsmobility  acceleration  ETV
vector 73464  IntersectionExampleScenario.node[72].veinsmobility  co2emission  ETV
73275	1537070 7171 10273 18029 94.5 149.5 221 0.973 11.54047740176 574.14891060437 2798.7941018467
73274	1544241 7367 10273 18029 94.5 149.5 221 -3.9249098300934 2.5000019073486 37.15309715271 352.05420614511
73273	1551608 7595 10241 18029 94.25 149.5 222 0 15.5 2213.0094405133 29865.433600498
73272	1559203 7736 10208 18029 94 149.5 223 184.17810058594 732.70669555664 100810.21057129 49773762.043624
73271	1566939 7780 10208 18029 94 149.5 223 486.85000610352 486.85000610352 108567.55136108 52856113.042787
73282	1574719 7266 10525 18448 96.5 152.75 226 0.973 11.36141391502 599.67225457866 2894.5835335267
73281	1581985 7299 10525 18448 96.5 152.75 226 -4.5 2.5000001192093 38.171613693237 414.08325428828
73280	1589284 7582 10492 18448 96.25 152.75 227 0 15.25 2258.6898107529 29214.152767996
73279	1596866 7919 10459 18448 96 152.75 228 166.078125 483.18505859375 92238.332397461 39491071.927186
73278	1604785 7951 10459 18448 96 152.75 228 486.85000610352 733.6792755127 119252.75131226 63427646.186416
vector 73467  IntersectionExampleScenario.node[73].veinsmobility  posx  ETV
vector 73468  IntersectionExampleScenario.node[73].veinsmobility  posy  ETV
vector 73469  IntersectionExampleScenario.node[73].veinsmobility  speed  ETV
vector 73470  IntersectionExampleScenario.node[73].veinsmobility  acceleration  ETV
vector 73471  IntersectionExampleScenario.node[73].veinsmobility  co2emission  ETV
73303	1613137 7117 10957 18695 99.75 154.75 221 0.973 11.200708441096 561.5506959788 2653.2388595624
73302	1620254 7340 10957 18695 99.75 154.75 221 -4.5 2.5000009536743 35.795072555542 366.87452552418
73301	1627594 7517 10923 18695 99.5 154.75 222 0 15.02499961853 2295.6022287905 29782.827668898
73300	1635111 7754 10888 18695 99.25 154.75 223 163.87969970703 732.52537536621 98078.974777222 47877715.369368
73299	1642865 7804 10888 18695 99.25 154.75 223 486.85000610352 486.85000610352 108567.55136108 52856113.042787
vector 73474  IntersectionExampleScenario.node[74].veinsmobility  posx  ETV
vector 73475  IntersectionExampleScenario.node[74].veinsmobility  posy  ETV
vector 73476  IntersectionExampleScenario.node[74].veinsmobility  speed  ETV
vector 73477  IntersectionExampleScenario.node[74].veinsmobility  acceleration  ETV
vector 73478  IntersectionExampleScenario.node[74].veinsmobility  co2emission  ETV
73338	1651070 6253 12208 18948 108.25 156.75 195 0.973 11.200708441096 547.6216359809 2711.3769591949
73337	1657323 6088 12208 18948 108.25 156.75 195 -3.6038360595703 2.5000009536743 37.15309715271 344.33077173076
73336	1663411 6639 12167 18948 108 156.75 196 0 15.02499961853 2218.584218055 28943.262062931
73335	1670050 6848 12126 18948 107.75 156.75 197 184.17810058594 733.45745849609 87745.182647705 43328670.519245
73334	1676898 6896 12126 18948 107.75 156.75 197 486.85000610352 486.85000610352 95909.451202393 46693516.90327
vector 73481  IntersectionExampleScenario.node[75].veinsmobility  posx  ETV
vector 73482  IntersectionExampleScenario.node[75].veinsmobility  posy  ETV
vector 73483  IntersectionExampleScenario.node[75].veinsmobility  speed  ETV
vector 73484  IntersectionExampleScenario.node[75].veinsmobility  acceleration  ETV
vector 73485  IntersectionExampleScenario.node[75].veinsmobility  co2emission  ETV
73296	1684195 7363 10855 19102 99 158 237 0.973 11.648172402475 615.50466821153 3009.8070530278
73295	1691558 6711 10855 19102 99 158 237 -8.013355255127 4 39.529638290405 484.87236041715
73294	1698269 7026 10822 19102 98.75 158 238 0 15.64999961853 2200.0112838745 31548.594386628
73293	1705295 8349 10789 19102 98.5 158 239 483.14999389648 785.82187652588 130744.85208893 73572108.679306
73292	1713644 8352 10789 19102 98.5 158 239 483.14999389648 732.75152587891 123700.24971008 65108357.083066
vector 73488  IntersectionExampleScenario.node[76].veinsmobility  posx  ETV
vector 73489  IntersectionExampleScenario.node[76].veinsmobility  posy  ETV
vector 73495  IntersectionExampleScenario.node[77].veinsmobility  posx  ETV
vector 73496  IntersectionExampleScenario.node[77].veinsmobility  posy  ETV
vector 73490  IntersectionExampleScenario.node[76].veinsmobility  speed  ETV
vector 73491  IntersectionExampleScenario.node[76].veinsmobility  acceleration  ETV
vector 73492  IntersectionExampleScenario.node[76].veinsmobility  co2emission  ETV
vector 73497  IntersectionExampleScenario.node[77].veinsmobility  speed  ETV
vector 73498  IntersectionExampleScenario.node[77].veinsmobility  acceleration  ETV
vector 73499  IntersectionExampleScenario.node[77].veinsmobility  co2emission  ETV
73310	1722798 7999 11027 19443 100.25 160.5 242 0.97223939240464 11.648172402475 622.81116125577 2975.6062014738
73309	1730797 7846 11027 19443 100.25 160.5 242 -4.5 2.5 38.680875778198 433.74447041452
73308	1738643 8093 10992 19443 100 160.5 243 0 15.64999961853 2292.9810479907 32131.97096291
73307	1746736 8520 10957 19443 99.75 160.5 244 482.98190307617 807.09531402588 135664.0952301 77833482.183293
73306	1755256 8528 10957 19443 99.75 160.5 244 483.14999389648 733.53004455566 126283.24659729 66468874.831005
73317	1763784 7970 11205 19608 101.5 161.75 242 0.973 11.990504229548 645.9349644488 3209.1026074526
73316	1771754 7936 11205 19608 101.5 161.75 242 -4.5 2.5000004768372 40.038900375366 441.68699134391
73315	1779690 8273 11169 19608 101.25 161.75 243 0 16.125 2341.2287076283 32800.522021033
73314	1787963 8512 11132 19608 101 161.75 244 237.154296875 817.73203277588 129362.2651825 73399202.292328
73313	1796475 8540 11132 19608 101 161.75 244 483.14999389648 483.14999389648 117888.59851074 56957875.65093
73352	1805015 5823 14100 19970 120.25 164.5 178 0.973 11.810082123732 567.75532173381 3217.2842460821
73351	1810838 5762 14100 19970 120.25 164.5 178 -3.7715759277344 2.5 39.699392318726 375.59948793335
73350	1816600 5934 14064 19970 120 164.5 179 4.7392950057983 15.875 2176.8713593483 29130.417178202
73349	1822534 6295 14026 19970 119.75 164.5 180 486.85000610352 785.82187652588 102506.47672272 60123945.212818
73348	1828829 6294 14026 19970 119.75 164.5 180 238.98626708984 483.14999389648 79079.751251221 35674776.136591
vector 73502  IntersectionExampleScenario.node[78].veinsmobility  posx  ETV
vector 73503  IntersectionExampleScenario.node[78].veinsmobility  posy  ETV
vector 73504  IntersectionExampleScenario.node[78].veinsmobility  speed  ETV
vector 73509  IntersectionExampleScenario.node[79].veinsmobility  posx  ETV
vector 73510  IntersectionExampleScenario.node[79].veinsmobility  posy  ETV
vector 73505  IntersectionExampleScenario.node[78].veinsmobility  acceleration  ETV
vector 73506  IntersectionExampleScenario.node[78].veinsmobility  co2emission  ETV
vector 73511  IntersectionExampleScenario.node[79].veinsmobility  speed  ETV
vector 73512  IntersectionExampleScenario.node[79].veinsmobility  acceleration  ETV
vector 73513  IntersectionExampleScenario.node[79].veinsmobility  co2emission  ETV
vector 73516  IntersectionExampleScenario.node[80].veinsmobility  posx  ETV
vector 73517  IntersectionExampleScenario.node[80].veinsmobility  posy  ETV
vector 73518  IntersectionExampleScenario.node[80].veinsmobility  speed  ETV
73394	1836157 5324 15167 20295 127.75 167 158 0.973 11.648172402475 513.32821482462 2825.4984659511
73393	1841481 4958 15167 20295 127.75 167 158 -3.5158367156982 2.5 38.341367721558 364.91121361601
73392	1846439 5318 15130 20295 127.5 167 159 3.094446182251 15.64999961853 2065.9963803291 28903.035514463
73391	1851757 5585 15093 20295 127.25 167 160 486.85000610352 733.39469909668 86103.511505127 47259410.335564
73390	1857342 5587 15093 20295 127.25 167 160 486.79058837891 757.09531402588 89453.145019531 51377654.994697
vector 73519  IntersectionExampleScenario.node[80].veinsmobility  acceleration  ETV
vector 73520  IntersectionExampleScenario.node[80].veinsmobility  co2emission  ETV
73373	1863098 6065 14515 20435 123 168 181 0.973 10.916047529558 520.88854959866 2501.0805652346
73372	1869163 5512 14515 20435 123 168 181 -9.2688550949097 4 34.606801986694 476.05910171037
73371	1874675 5948 14477 20435 122.75 168 182 0 14.625 2169.4551553726 28954.028395387
73370	1880623 6345 14438 20435 122.5 168 183 238.35711669922 483.14999389648 79833.12512207 35823222.889439
73369	1886968 6381 14438 20435 122.5 168 183 184.17810058594 483.36395263672 73816.170013428 31643034.470705
vector 73523  IntersectionExampleScenario.node[81].veinsmobility  posx  ETV
vector 73524  IntersectionExampleScenario.node[81].veinsmobility  posy  ETV
vector 73525  IntersectionExampleScenario.node[81].veinsmobility  speed  ETV
vector 73530  IntersectionExampleScenario.node[82].veinsmobility  posx  ETV
vector 73531  IntersectionExampleScenario.node[82].veinsmobility  posy  ETV
vector 73526  IntersectionExampleScenario.node[81].veinsmobility  acceleration  ETV
vector 73527  IntersectionExampleScenario.node[81].veinsmobility  co2emission  ETV
vector 73532  IntersectionExampleScenario.node[82].veinsmobility  speed  ETV
vector 73533  IntersectionExampleScenario.node[82].veinsmobility  acceleration  ETV
vector 73534  IntersectionExampleScenario.node[82].veinsmobility  co2emission  ETV
73380	1894151 6011 14988 20857 126.5 171 179 0.973 10.916047529558 501.41166115801 2399.4712517472
73379	1900162 5824 14988 20857 126.5 171 179 -4.5 2.5 34.267293930054 278.24132056389
73378	1905986 5993 14955 20857 126.25 171 180 5.6500000953674 14.625 2191.8429546356 28332.999576714
73377	1911979 6321 14922 20857 126 171 181 486.85000610352 735.32893371582 97015.116912842 53033603.146469
73376	1918300 6321 14922 20857 126 171 181 486.70669555664 785.82187652588 104401.8920517 62266816.496109
vector 73537  IntersectionExampleScenario.node[83].veinsmobility  posx  ETV
vector 73538  IntersectionExampleScenario.node[83].veinsmobility  posy  ETV
vector 73539  IntersectionExampleScenario.node[83].veinsmobility  speed  ETV
vector 73540  IntersectionExampleScenario.node[83].veinsmobility  acceleration  ETV
vector 73541  IntersectionExampleScenario.node[83].veinsmobility  co2emission  ETV
vector 73544  IntersectionExampleScenario.node[84].veinsmobility  posx  ETV
vector 73545  IntersectionExampleScenario.node[84].veinsmobility  posy  ETV
73387	1925176 6006 15058 21040 127 172.25 182 0.973 11.636173543202 564.24943643725 2958.0154832709
73386	1931182 6062 15058 21040 127 172.25 182 -4.5 2.5 39.832311630249 371.73803568828
73385	1937244 6083 15023 21040 126.75 172.25 183 5.6500000953674 15.63330078125 2284.3615465164 30541.333069144
73384	1943327 6420 14988 21040 126.5 172.25 184 486.85000610352 734.7594909668 97869.791397095 53051620.916712
73383	1949747 6431 14988 21040 126.5 172.25 184 486.68243408203 809.56562805176 107782.37799072 65510580.153583
vector 73546  IntersectionExampleScenario.node[84].veinsmobility  speed  ETV
vector 73547  IntersectionExampleScenario.node[84].veinsmobility  acceleration  ETV
vector 73548  IntersectionExampleScenario.node[84].veinsmobility  co2emission  ETV
vector 73551  IntersectionExampleScenario.node[85].veinsmobility  posx  ETV
vector 73552  IntersectionExampleScenario.node[85].veinsmobility  posy  ETV
vector 73553  IntersectionExampleScenario.node[85].veinsmobility  speed  ETV
vector 73554  IntersectionExampleScenario.node[85].veinsmobility  acceleration  ETV
vector 73555  IntersectionExampleScenario.node[85].veinsmobility  co2emission  ETV
73408	1956826 5290 16116 21239 134.5 173.5 157 0.973 12.099024792222 524.84498360545 2945.6740569779
73407	1962116 5189 16116 21239 134.5 173.5 157 -3.6119060516357 2.5 40.038900375366 302.03938848585
73406	1967305 5220 16083 21239 134.25 173.5 158 5.6500000953674 16.27499961853 2186.4891133308 31738.288479462
73405	1972525 5555 16050 21239 134 173.5 159 236.24102783203 483.14999389648 68768.245697021 30651247.54624
73404	1978080 5540 16050 21239 134 173.5 159 184.17810058594 483.14999389648 63252.354278564 26885802.123928
vector 73558  IntersectionExampleScenario.node[86].veinsmobility  posx  ETV
vector 73559  IntersectionExampleScenario.node[86].veinsmobility  posy  ETV
vector 73560  IntersectionExampleScenario.node[86].veinsmobility  speed  ETV
vector 73561  IntersectionExampleScenario.node[86].veinsmobility  acceleration  ETV
vector 73562  IntersectionExampleScenario.node[86].veinsmobility  co2emission  ETV
vector 73565  IntersectionExampleScenario.node[87].veinsmobility  posx  ETV
vector 73566  IntersectionExampleScenario.node[87].veinsmobility  posy  ETV
vector 73567  IntersectionExampleScenario.node[87].veinsmobility  speed  ETV
vector 73568  IntersectionExampleScenario.node[87].veinsmobility  acceleration  ETV
vector 73569  IntersectionExampleScenario.node[87].veinsmobility  co2emission  ETV
73422	1984422 5577 16225 21682 135.25 176.25 165 0.973 11.882693917199 526.24096806263 2933.0261549132
73421	1989999 5275 16225 21682 135.25 176.25 165 -4.5 2.5 39.699392318726 296.03782107204
73420	1995274 5488 16188 21682 135 176.25 166 5.6500000953674 15.975706100464 2269.14793396 32547.978114263
73419	2000762 5839 16151 21682 134.75 176.25 167 238.98028564453 483.14999389648 72798.373138428 32639815.388059
73418	2006601 5811 16151 21682 134.75 176.25 167 161.1796875 483.14999389648 64856.383270264 27286146.73589
vector 73572  IntersectionExampleScenario.node[88].veinsmobility  posx  ETV
vector 73573  IntersectionExampleScenario.node[88].veinsmobility  posy  ETV
vector 73579  IntersectionExampleScenario.node[89].veinsmobility  posx  ETV
vector 73580  IntersectionExampleScenario.node[89].veinsmobility  posy  ETV
vector 73574  IntersectionExampleScenario.node[88].veinsmobility  speed  ETV
vector 73575  IntersectionExampleScenario.node[88].veinsmobility  acceleration  ETV
vector 73576  IntersectionExampleScenario.node[88].veinsmobility  co2emission  ETV
vector 73581  IntersectionExampleScenario.node[89].veinsmobility  speed  ETV
vector 73586  IntersectionExampleScenario.node[90].veinsmobility  posx  ETV
vector 73587  IntersectionExampleScenario.node[90].veinsmobility  posy  ETV
vector 73582  IntersectionExampleScenario.node[89].veinsmobility  acceleration  ETV
vector 73583  IntersectionExampleScenario.node[89].veinsmobility  co2emission  ETV
vector 73588  IntersectionExampleScenario.node[90].veinsmobility  speed  ETV
vector 73589  IntersectionExampleScenario.node[90].veinsmobility  acceleration  ETV
vector 73590  IntersectionExampleScenario.node[90].veinsmobility  co2emission  ETV
vector 73593  IntersectionExampleScenario.node[91].veinsmobility  posx  ETV
vector 73594  IntersectionExampleScenario.node[91].veinsmobility  posy  ETV
73345	2013769 8545 12540 22311 110.25 179.75 279 0.973 11.90022389248 710.40690654748 3447.8457386071
73344	2022314 8261 12540 22311 110.25 179.75 279 -8.5195274353027 4 40.208654403687 658.82688313219
73343	2030575 8425 12497 22311 110 179.75 280 0 16 2280.434659481 30403.998903805
73342	2039000 9788 12454 22311 109.75 179.75 281 166.078125 732.22775268555 125486.42549133 60586531.17806
73341	2048788 9836 12454 22311 109.75 179.75 281 486.85000610352 486.85000610352 136804.85171509 66603442.892481
vector 73595  IntersectionExampleScenario.node[91].veinsmobility  speed  ETV
vector 73600  IntersectionExampleScenario.node[92].veinsmobility  posx  ETV
vector 73601  IntersectionExampleScenario.node[92].veinsmobility  posy  ETV
vector 73596  IntersectionExampleScenario.node[91].veinsmobility  acceleration  ETV
vector 73597  IntersectionExampleScenario.node[91].veinsmobility  co2emission  ETV
vector 73602  IntersectionExampleScenario.node[92].veinsmobility  speed  ETV
vector 73603  IntersectionExampleScenario.node[92].veinsmobility  acceleration  ETV
vector 73604  IntersectionExampleScenario.node[92].veinsmobility  co2emission  ETV
vector 73607  IntersectionExampleScenario.node[93].veinsmobility  posx  ETV
vector 73608  IntersectionExampleScenario.node[93].veinsmobility  posy  ETV
vector 73609  IntersectionExampleScenario.node[93].veinsmobility  speed  ETV
vector 73610  IntersectionExampleScenario.node[93].veinsmobility  acceleration  ETV
vector 73611  IntersectionExampleScenario.node[93].veinsmobility  co2emission  ETV
73359	2059673 7791 14174 22699 120.75 181.75 245 0.973 11.648172402475 639.62250601011 3383.0050003273
73358	2067464 7669 14174 22699 120.75 181.75 245 -4.5 2.5 38.341367721558 467.55516401439
73357	2075133 7917 14137 22699 120.5 181.75 246 0 15.64999961853 2183.7580000386 29264.517222788
73356	2083050 8610 14100 22699 120.25 181.75 247 184.17810058594 483.14999389648 103431.93676758 45308816.279354
73355	2091660 8626 14100 22699 120.25 181.75 247 486.85000610352 733.05140686035 128431.8938446 67847930.73765
73401	2100286 7364 15245 23441 128.25 185.75 231 0.973 11.200708441096 569.41561261442 2660.8154343317
73400	2107650 7567 15245 23441 128.25 185.75 231 -3.8948295116425 2.5 35.285810470581 324.845628765
73399	2115217 7741 15206 23441 128 185.75 232 0 15.02499961853 2190.1972944047 27535.391109379
73398	2122958 8115 15167 23441 127.75 185.75 233 184.17810058594 483.14999389648 96078.780731201 41545113.479765
73397	2131073 8150 15167 23441 127.75 185.75 233 486.85000610352 734.80828857422 122148.61444092 65146888.156853
vector 73614  IntersectionExampleScenario.node[94].veinsmobility  posx  ETV
vector 73615  IntersectionExampleScenario.node[94].veinsmobility  posy  ETV
vector 73616  IntersectionExampleScenario.node[94].veinsmobility  speed  ETV
vector 73617  IntersectionExampleScenario.node[94].veinsmobility  acceleration  ETV
vector 73618  IntersectionExampleScenario.node[94].veinsmobility  co2emission  ETV
vector 73621  IntersectionExampleScenario.node[95].veinsmobility  posx  ETV
vector 73622  IntersectionExampleScenario.node[95].veinsmobility  posy  ETV
vector 73628  IntersectionExampleScenario.node[96].veinsmobility  posx  ETV
vector 73629  IntersectionExampleScenario.node[96].veinsmobility  posy  ETV
vector 73623  IntersectionExampleScenario.node[95].veinsmobility  speed  ETV
vector 73630  IntersectionExampleScenario.node[96].veinsmobility  speed  ETV
vector 73624  IntersectionExampleScenario.node[95].veinsmobility  acceleration  ETV
vector 73625  IntersectionExampleScenario.node[95].veinsmobility  co2emission  ETV
vector 73631  IntersectionExampleScenario.node[96].veinsmobility  acceleration  ETV
vector 73632  IntersectionExampleScenario.node[96].veinsmobility  co2emission  ETV
73415	2140426 6758 16188 23781 135 187.75 212 0.973 11.200708441096 552.31942609459 2636.4698761078
73414	2147184 6925 16188 23781 135 187.75 212 -4.0571050643921 2.5 37.15309715271 330.84580399747
73413	2154109 7142 16151 23781 134.75 187.75 213 0.87470293045044 15.02499961853 2183.3441543579 27303.527365775
73412	2161251 7463 16116 23781 134.5 187.75 214 184.17810058594 483.14999389648 86839.213500977 37073444.668068
73411	2168714 7486 16116 23781 134.5 187.75 214 486.85000610352 733.22999572754 112537.27386475 60222016.216571
vector 73635  IntersectionExampleScenario.node[97].veinsmobility  posx  ETV
vector 73636  IntersectionExampleScenario.node[97].veinsmobility  posy  ETV
vector 73637  IntersectionExampleScenario.node[97].veinsmobility  speed  ETV
vector 73638  IntersectionExampleScenario.node[97].veinsmobility  acceleration  ETV
vector 73639  IntersectionExampleScenario.node[97].veinsmobility  co2emission  ETV
vector 73642  IntersectionExampleScenario.node[98].veinsmobility  posx  ETV
vector 73643  IntersectionExampleScenario.node[98].veinsmobility  posy  ETV
vector 73644  IntersectionExampleScenario.node[98].veinsmobility  speed  ETV
vector 73645  IntersectionExampleScenario.node[98].veinsmobility  acceleration  ETV
vector 73646  IntersectionExampleScenario.node[98].veinsmobility  co2emission  ETV
73366	2177002 8468 14252 24144 121.25 189.75 275 0.973 11.810082123732 687.84988613174 3327.2746555233
73365	2185470 7866 14252 24144 121.25 189.75 275 -24.024120330811 4 40.038900375366 1067.2284366594
73364	2193336 8074 14213 24144 121 189.75 276 0 15.875 2258.4947299957 30517.948641013
73363	2201410 9682 14174 24144 120.75 189.75 277 486.63604736328 807.99687957764 152708.6853714 86667889.492361
73362	2211092 9625 14174 24144 120.75 189.75 277 239.04711914062 483.14999389648 125993.90441895 58357076.959291
vector 73649  IntersectionExampleScenario.node[99].veinsmobility  posx  ETV
vector 73650  IntersectionExampleScenario.node[99].veinsmobility  posy  ETV
vector 73651  IntersectionExampleScenario.node[99].veinsmobility  speed  ETV
vector 73656  IntersectionExampleScenario.node[100].veinsmobility  posx  ETV
vector 73657  IntersectionExampleScenario.node[100].veinsmobility  posy  ETV
vector 73652  IntersectionExampleScenario.node[99].veinsmobility  acceleration  ETV
vector 73653  IntersectionExampleScenario.node[99].veinsmobility  co2emission  ETV
vector 73658  IntersectionExampleScenario.node[100].veinsmobility  speed  ETV
73429	2221353 6098 17405 24415 144.25 191.25 189 0.97223939240464 11.648172402475 547.55528978397 2913.0164370431
73428	2227451 6175 17405 24415 144.25 191.25 189 -2.1303596496582 2.5 38.680875778198 308.63853386885
73427	2233626 6461 17374 24415 144 191.25 190 1.7523242235184 15.64999961853 2212.3284614086 29831.136395434
73426	2240087 6675 17343 24415 143.75 191.25 191 237.79193115234 785.82187652588 99725.084571838 56181946.830349
73425	2246762 6685 17343 24415 143.75 191.25 191 483.14999389648 483.14999389648 92281.648834229 44585878.071015
vector 73663  IntersectionExampleScenario.node[101].veinsmobility  posx  ETV
vector 73664  IntersectionExampleScenario.node[101].veinsmobility  posy  ETV
vector 73659  IntersectionExampleScenario.node[100].veinsmobility  acceleration  ETV
vector 73660  IntersectionExampleScenario.node[100].veinsmobility  co2emission  ETV
vector 73665  IntersectionExampleScenario.node[101].veinsmobility  speed  ETV
vector 73670  IntersectionExampleScenario.node[102].veinsmobility  posx  ETV
vector 73671  IntersectionExampleScenario.node[102].veinsmobility  posy  ETV
vector 73666  IntersectionExampleScenario.node[101].veinsmobility  acceleration  ETV
vector 73667  IntersectionExampleScenario.node[101].veinsmobility  co2emission  ETV
vector 73672  IntersectionExampleScenario.node[102].veinsmobility  speed  ETV
vector 73673  IntersectionExampleScenario.node[102].veinsmobility  acceleration  ETV
vector 73674  IntersectionExampleScenario.node[102].veinsmobility  co2emission  ETV
vector 73677  IntersectionExampleScenario.node[103].veinsmobility  posx  ETV
vector 73678  IntersectionExampleScenario.node[103].veinsmobility  posy  ETV
vector 73679  IntersectionExampleScenario.node[103].veinsmobility  speed  ETV
73436	2254665 6101 17832 24946 148 194 185 0.973 11.810082123732 572.19205980135 3176.5102693517
73435	2260766 6076 17832 24946 148 194 185 -4.5 2.5000019073486 39.699392318726 388.2041633031
73434	2266842 6184 17803 24946 147.75 194 186 4.3557534217834 15.875 2208.8270196915 29611.988803114
73433	2273026 6528 17774 24946 147.5 194 187 486.71887207031 793.78281402588 106842.66758728 62919035.307483
73432	2279554 6514 17774 24946 147.5 194 187 238.76483154297 483.14999389648 82445.963134766 37297005.581546
vector 73684  IntersectionExampleScenario.node[104].veinsmobility  posx  ETV
vector 73685  IntersectionExampleScenario.node[104].veinsmobility  posy  ETV
vector 73680  IntersectionExampleScenario.node[103].veinsmobility  acceleration  ETV
vector 73681  IntersectionExampleScenario.node[103].veinsmobility  co2emission  ETV
vector 73691  IntersectionExampleScenario.node[105].veinsmobility  posx  ETV
vector 73692  IntersectionExampleScenario.node[105].veinsmobility  posy  ETV
vector 73686  IntersectionExampleScenario.node[104].veinsmobility  speed  ETV
vector 73687  IntersectionExampleScenario.node[104].veinsmobility  acceleration  ETV
vector 73688  IntersectionExampleScenario.node[104].veinsmobility  co2emission  ETV
vector 73693  IntersectionExampleScenario.node[105].veinsmobility  speed  ETV
vector 73694  IntersectionExampleScenario.node[105].veinsmobility  acceleration  ETV
vector 73695  IntersectionExampleScenario.node[105].veinsmobility  co2emission  ETV
73492	2287051 5053 19201 25452 158.75 196.5 152 0.973 11.695213310832 506.71986214302 3014.7001960431
[...]
78367	28581823 5896 235751 240839 1737.5 1777.25 160 238.42041015625 805.05782318115 85204.79964447 49843366.062492
vector 78535  IntersectionExampleScenario.node[797].veinsmobility  posx  ETV
vector 78536  IntersectionExampleScenario.node[797].veinsmobility  posy  ETV
vector 78537  IntersectionExampleScenario.node[797].veinsmobility  speed  ETV
vector 78542  IntersectionExampleScenario.node[798].veinsmobility  posx  ETV
vector 78543  IntersectionExampleScenario.node[798].veinsmobility  posy  ETV
vector 78538  IntersectionExampleScenario.node[797].veinsmobility  acceleration  ETV
vector 78539  IntersectionExampleScenario.node[797].veinsmobility  co2emission  ETV
vector 78544  IntersectionExampleScenario.node[798].veinsmobility  speed  ETV
vector 78545  IntersectionExampleScenario.node[798].veinsmobility  acceleration  ETV
vector 78546  IntersectionExampleScenario.node[798].veinsmobility  co2emission  ETV
vector 78549  IntersectionExampleScenario.node[799].veinsmobility  posx  ETV
vector 78550  IntersectionExampleScenario.node[799].veinsmobility  posy  ETV
vector 78551  IntersectionExampleScenario.node[799].veinsmobility  speed  ETV
vector 78552  IntersectionExampleScenario.node[799].veinsmobility  acceleration  ETV
vector 78553  IntersectionExampleScenario.node[799].veinsmobility  co2emission  ETV
vector 78556  IntersectionExampleScenario.node[800].veinsmobility  posx  ETV
vector 78557  IntersectionExampleScenario.node[800].veinsmobility  posy  ETV
vector 78558  IntersectionExampleScenario.node[800].veinsmobility  speed  ETV
vector 78559  IntersectionExampleScenario.node[800].veinsmobility  acceleration  ETV
vector 78560  IntersectionExampleScenario.node[800].veinsmobility  co2emission  ETV
vector 78563  IntersectionExampleScenario.node[801].veinsmobility  posx  ETV
vector 78564  IntersectionExampleScenario.node[801].veinsmobility  posy  ETV
vector 78565  IntersectionExampleScenario.node[801].veinsmobility  speed  ETV
vector 78566  IntersectionExampleScenario.node[801].veinsmobility  acceleration  ETV
vector 78567  IntersectionExampleScenario.node[801].veinsmobility  co2emission  ETV
78385	28589749 5363 236564 242086 1747.25 1784.5 150 0.87724236611116 12.717865293408 542.95996253173 3466.7601590924
78384	28595112 5066 236564 242086 1747.25 1784.5 150 -4.0983390808105 2.5 43.943227767944 328.05816993141
78383	28600178 5240 236541 242086 1747 1784.5 151 5.6500000953674 17.125 2175.804983139 33214.248954486
78382	28605418 5599 236518 242086 1746.75 1784.5 152 184.17810058594 483.16494750977 60301.899353027 25594137.910044
78381	28611017 5620 236518 242086 1746.75 1784.5 152 486.85000610352 731.0777130127 81417.280441284 44448373.82321
vector 78570  IntersectionExampleScenario.node[802].veinsmobility  posx  ETV
vector 78571  IntersectionExampleScenario.node[802].veinsmobility  posy  ETV
vector 78572  IntersectionExampleScenario.node[802].veinsmobility  speed  ETV
vector 78573  IntersectionExampleScenario.node[802].veinsmobility  acceleration  ETV
vector 78574  IntersectionExampleScenario.node[802].veinsmobility  co2emission  ETV
vector 78577  IntersectionExampleScenario.node[803].veinsmobility  posx  ETV
vector 78578  IntersectionExampleScenario.node[803].veinsmobility  posy  ETV
vector 78579  IntersectionExampleScenario.node[803].veinsmobility  speed  ETV
vector 78580  IntersectionExampleScenario.node[803].veinsmobility  acceleration  ETV
vector 78581  IntersectionExampleScenario.node[803].veinsmobility  co2emission  ETV
vector 78584  IntersectionExampleScenario.node[804].veinsmobility  posx  ETV
vector 78585  IntersectionExampleScenario.node[804].veinsmobility  posy  ETV
vector 78586  IntersectionExampleScenario.node[804].veinsmobility  speed  ETV
vector 78587  IntersectionExampleScenario.node[804].veinsmobility  acceleration  ETV
vector 78588  IntersectionExampleScenario.node[804].veinsmobility  co2emission  ETV
78427	28617855 5472 237109 242969 1752 1790 153 0.973 11.990504229548 528.87650966951 2952.2133928593
78426	28623327 5167 237109 242969 1752 1790 153 -4.5 2.5 41.227170944214 385.199581989
78425	28628494 5527 237078 242969 1751.75 1790 154 4.0512495040894 16.125 2109.1419448853 30706.523106236
78424	28634021 5709 237047 242969 1751.5 1790 155 235.38012695312 757.64688873291 78859.370185852 43600153.18039
78423	28639730 5734 237047 242969 1751.5 1790 155 483.14999389648 483.14999389648 74888.249053955 36182257.073337
78378	28645464 6201 236541 243050 1747 1790.5 175 0.973 11.36141391502 532.88340770487 2746.5749440374
78377	28651665 5805 236541 243050 1747 1790.5 175 -6.7711477279663 4 36.98334312439 450.59403005823
78376	28657470 6123 236518 243050 1746.75 1790.5 176 0 15.25 2175.7520129681 29985.058215833
78375	28663593 6542 236497 243050 1746.5 1790.5 177 486.63604736328 785.82187652588 100392.53553009 58765850.527098
78374	28670135 6487 236497 243050 1746.5 1790.5 177 237.36993408203 483.14999389648 77193.700531006 34635217.945472
78399	28676622 6149 236745 243323 1749 1792.25 174 0.973 11.990504229548 577.41969258826 3211.6628144856
78398	28682771 5974 236745 243323 1749 1792.25 174 -4.5 2.5 39.529638290405 394.12420252014
78397	28688745 6256 236716 243323 1748.75 1792.25 175 5.6500000953674 16.125 2279.8146972656 31386.002188716
78396	28695001 6502 236687 243323 1748.5 1792.25 176 238.67163085938 803.92188262939 95300.261070251 56441880.750649
78395	28701503 6512 236687 243323 1748.5 1792.25 176 483.14999389648 483.14999389648 85034.398925781 41084369.321982
78413	28708015 6423 236952 243752 1750.75 1795 178 0.973 11.54047740176 529.46975374117 2560.9602830919
78412	28714438 6292 236952 243752 1750.75 1795 178 -4.5 2.5 38.680875778198 255.48772265736
78411	28720730 6404 236921 243752 1750.5 1795 179 5.6500000953674 15.500185012817 2335.4266824722 31805.319191454
78410	28727134 6637 236890 243752 1750.25 1795 180 235.46008300781 814.10782623291 97719.648590088 58170202.972043
78409	28733771 6660 236890 243752 1750.25 1795 180 483.14999389648 483.14999389648 86966.998901367 42018104.988391
78462	28740431 6095 237512 244126 1755 1797.5 171 0.973 10.209991344897 472.98950663043 2186.8828193272
78461	28746526 6143 237512 244126 1755 1797.5 171 -2.6781158447266 2.5 36.134572982788 156.56531506507
78460	28752669 6153 237477 244126 1754.75 1797.5 172 5.6500000953674 15.13146686554 2307.5858898163 31616.150653018
78459	28758822 6390 237441 244126 1754.5 1797.5 173 235.67895507812 807.45984649658 91887.618598938 53595555.952913
78458	28765212 6401 237441 244126 1754.5 1797.5 173 483.14999389648 483.14999389648 83584.948944092 40384067.572176
78392	28771613 6843 236637 244266 1748 1798.5 203 0.973 12.353032912318 607.59428188011 3409.8103429397
78391	28778456 6403 236637 244266 1748 1798.5 203 -7.2936153411865 4 42.245687484741 507.90040070274
78390	28784859 6670 236612 244266 1747.75 1798.5 204 0 16.625 2220.2221360207 33140.0330121
78389	28791529 7585 236587 244266 1747.5 1798.5 205 483.14999389648 483.14999389648 99045.748748779 47853952.903445
78388	28799114 7551 236587 244266 1747.5 1798.5 205 184.17810058594 735.04066467285 93087.51020813 46294176.271359
78420	28806665 6591 237047 244336 1751.5 1799 191 0.973 11.810082123732 570.90249147058 3047.3405600216
78419	28813256 6143 237047 244336 1751.5 1799 191 -7.2641291618347 4 39.699392318726 483.2908312258
78418	28819399 6417 237016 244336 1751.25 1799 192 0 15.875 2180.8750771284 31208.168482518
78417	28825816 7070 236983 244336 1751 1799 193 486.85000610352 733.87629699707 102024.9119873 54919191.604769
78416	28832886 7134 236983 244336 1751 1799 193 486.63604736328 785.82187652588 108043.53028107 62360426.074011
78406	28840020 7207 236745 244474 1749 1800 205 0.973 11.54047740176 563.19278696563 2829.4466671348
78405	28847227 7348 236745 244474 1749 1800 205 -4.5 2.5 36.98334312439 423.35639164929
78404	28854575 7463 236716 244474 1748.75 1800 206 0 15.5 2188.1732466104 29962.47986612
78403	28862038 7658 236687 244474 1748.5 1800 207 483.14999389648 483.14999389648 100012.04873657 48320820.73665
78402	28869696 7604 236687 244474 1748.5 1800 207 162.00311279297 704.48345947266 89682.959686279 43010019.844362
78434	28877300 6063 237174 244474 1752.5 1800 191 0.973 12.26218747632 532.11283024673 3213.5018817026
78433	28883363 5627 237174 244474 1752.5 1800 191 -7.5511355400085 4 42.439352035522 552.67859508491
78432	28888990 5683 237142 244474 1752.25 1800 192 0 16.5 1434.5152386427 20102.830408643
78431	28894673 7112 237109 244474 1752 1800 193 184.17810058594 483.36395263672 78818.563690186 33983922.462166
78430	28901785 7066 237109 244474 1752 1800 193 486.85000610352 547.1640625 94560.698394775 46350737.492953
78441	28908851 6465 237240 244474 1753 1800 189 0.973 11.200708441096 521.69861919611 2541.8862175852
78440	28915316 7047 237240 244474 1753 1800 189 -3.777473449707 2.5 35.964826583862 318.85000501694
78439	28922363 6895 237207 244474 1752.75 1800 190 1.5876811742783 15.02499961853 2037.8497256041 26111.454819495
78438	28929258 7066 237174 244474 1752.5 1800 191 483.14999389648 483.14999389648 92281.648834229 44585878.071015
78437	28936324 7048 237174 244474 1752.5 1800 191 166.31341552734 671.23794555664 79951.540267944 36881516.628863
78448	28943372 6448 237406 244474 1754.25 1800 184 0.973 11.648172402475 541.85059967234 2850.9458192583
78447	28949820 6356 237406 244474 1754.25 1800 184 -4.5 2.5 38.341367721558 416.26702458798
78446	28956176 6559 237371 244474 1754 1800 185 0 15.64999961853 2120.0680130608 29183.589018101
78445	28962735 6874 237336 244474 1753.75 1800 186 486.85000610352 703.17553710938 96910.863220215 51187401.433294
78444	28969609 6861 237336 244474 1753.75 1800 186 486.83236694336 800.04531860352 106239.70926666 62707938.235202
78455	28976470 6364 237406 244474 1754.25 1800 184 0.973 11.200708441096 479.15781407889 2476.1999511904
78454	28982834 6472 237406 244474 1754.25 1800 184 -4.3333892822266 2.5000004768372 36.260717391968 379.83652269025
78453	28989306 6695 237371 244474 1754 1800 185 0 15.02499961853 1478.8272487922 19009.02576216
78452	28996001 6844 237336 244474 1753.75 1800 186 164.94219970703 530.16180419922 72841.803253174 30573890.73655
78451	29002845 6881 237336 244474 1753.75 1800 186 486.85000610352 486.85000610352 90554.101135254 44086264.690397
78469	29009726 5636 238034 244474 1759 1800 165 0.973 11.36141391502 494.54157302117 2720.447622075
78468	29015362 5722 238034 244474 1759 1800 165 -4.5 2.5 38.17177772522 398.38973611645
78467	29021084 5819 238001 244474 1758.75 1800 166 1.9354492425919 15.25 1762.4355325699 22227.483499683
78466	29026903 6169 237968 244474 1758.5 1800 167 342.54644775391 483.14999389648 77904.732055664 36551933.424695
78465	29033072 6140 237968 244474 1758.5 1800 167 184.17810058594 483.30615234375 65412.594360352 27231143.616799
78476	29039212 5069 238104 244474 1759.5 1800 163 0.973 11.200708441096 346.83251197367 1540.248604191
78475	29044281 4832 238104 244474 1759.5 1800 163 -27.932220458984 2.5 -22.60000038147 1015.1006833667
78474	29049113 4957 238069 244474 1759.25 1800 164 0 16.048038482666 1201.9678134918 17407.213777245
78473	29054070 6098 238034 244474 1759 1800 165 498.39999389648 799.27968597412 95997.067008972 57647584.728106
78472	29060168 6103 238034 244474 1759 1800 165 483.14999389648 483.14999389648 79719.74899292 38516596.239358
78483	29066271 5340 238177 244474 1760 1800 161 0.973 11.200708441096 372.6219933213 1638.4195918651
78482	29071611 5757 238177 244474 1760 1800 161 -4.5 2.5 8.3999996185303 298.54127104178
78481	29077368 5809 238141 244474 1759.75 1800 162 0 15.590220451355 1233.1394008547 14675.601548395
78480	29083177 6001 238104 244474 1759.5 1800 163 184.17810058594 483.32504272461 62694.857971191 25537428.007054
78479	29089178 6030 238104 244474 1759.5 1800 163 486.85000610352 498.20916748047 79404.644195557 38681926.568553
78490	29095208 5351 238321 244474 1761 1800 157 0.973 11.436697451703 398.62553527913 1907.0237506336
78489	29100559 5564 238321 244474 1761 1800 157 -4.5 2.5 21.39999961853 416.99516432282
78488	29106123 5801 238284 244474 1760.75 1800 158 0 15.566482543945 1263.4458198529 15792.207475861
78487	29111924 5846 238247 244474 1760.5 1800 159 162.00311279297 473.62719726562 58453.45916748 23065687.739257
78486	29117770 5882 238247 244474 1760.5 1800 159 486.85000610352 486.85000610352 77409.150970459 37686645.622436
78497	29123652 4891 238822 244474 1764.5 1800 143 0.973 11.200708441096 323.67348214801 1436.0713323257
78496	29128543 5002 238822 244474 1764.5 1800 143 -4.5 2.5 -0.37748718261719 342.45423060388
78495	29133545 5226 238785 244474 1764.25 1800 144 0 15.02499961853 1149.4046801031 14457.684745364
78494	29138771 5345 238748 244474 1764 1800 145 163.32336425781 448.76641845703 51555.144683838 19702198.084219
78493	29144116 5363 238748 244474 1764 1800 145 486.85000610352 486.85000610352 70593.25088501 34368324.624234
78504	29149479 4132 239344 244474 1768 1800 129 0.96333723109819 12.099024792222 293.19222563353 1556.2762028617
78503	29153611 4773 239344 244474 1768 1800 129 -3.7510614395142 2.5 -22.248187243938 201.9100712139
78502	29158384 4775 239305 244474 1767.75 1800 130 0 16.27499961853 1119.4326197095 14373.085037344
78501	29163159 4830 239266 244474 1767.5 1800 131 505.69525146484 785.82187652588 78839.863182068 48657783.181329
78500	29167989 4846 239266 244474 1767.5 1800 131 483.14999389648 483.14999389648 63292.649200439 30579843.074885
78511	29172835 4086 239504 244474 1769 1800 125 0.973 11.200708441096 288.17310163242 1335.549112806
78510	29176921 4392 239504 244474 1769 1800 125 -4.5 2.5 -16.192336082458 228.74450496934
78509	29181313 4635 239463 244474 1768.75 1800 126 1.6019160747528 15.02499961853 1163.2546643019 14290.932770056
78508	29185948 4668 239422 244474 1768.5 1800 127 517.30740356445 807.99687957764 79757.582038879 51288606.337144
78507	29190616 4698 239422 244474 1768.5 1800 127 483.14999389648 483.14999389648 61360.049224854 29646107.408476
78518	29195314 4057 239704 244474 1770.25 1800 120 0.973 11.200708441096 311.1332723422 1491.37979643
78517	29199371 4259 239704 244474 1770.25 1800 120 -4.5 2.5 -22.186360359192 329.39122415689
78516	29203630 4455 239663 244474 1770 1800 121 0.10341000556946 15.931761741638 1172.0466556549 14796.524652411
78515	29208085 4500 239622 244474 1769.75 1800 122 524.87622070312 818.18282318115 77961.100357056 51003234.450562
78514	29212585 4513 239622 244474 1769.75 1800 122 483.14999389648 483.14999389648 58944.299255371 28478937.825465
78525	29217098 3584 240281 244474 1773.75 1800 106 0.973 11.200708441096 277.52498601013 1344.6590061142
78524	29220682 3355 240281 244474 1773.75 1800 106 -7.3619203567505 2.5 -22.60000038147 345.97143058606
78523	29224037 3678 240239 244474 1773.5 1800 107 0 15.02499961853 1147.0019097328 15946.510800375
78522	29227715 3996 240196 244474 1773.25 1800 108 486.85000610352 486.85000610352 52579.80065918 25598476.271843
78521	29231711 3989 240196 244474 1773.25 1800 108 498.39999389648 785.82187652588 66811.153770447 42418217.513889
78532	29235700 3222 240760 244474 1776.75 1800 94 0.973 11.648172402475 269.17041764437 1445.8292048582
78531	29238922 3228 240760 244474 1776.75 1800 94 -7.0929417610168 2.5 -22.60000038147 322.24078740908
78530	29242150 3401 240719 244474 1776.5 1800 95 0 15.64999961853 1147.3596698046 16111.715776408
78529	29245551 3552 240678 244474 1776.25 1800 96 483.14999389648 483.14999389648 46382.399414062 22409655.993809
78528	29249103 3526 240678 244474 1776.25 1800 96 184.17810058594 471.60000610352 32446.52130127 11871008.001481
78539	29252629 2965 240960 244474 1778 1800 89 0.973 11.648172402475 265.96877550114 1524.7524091769
78538	29255594 3155 240960 244474 1778 1800 89 -3.5545711517334 2.5 4.6484775543213 217.10689210186
78537	29258749 3311 240919 244474 1777.75 1800 90 4.3233065605164 15.64999961853 1001.5657100677 12560.254299658
78536	29262060 3338 240878 244474 1777.5 1800 91 184.17810058594 432.72500610352 29153.852020264 9952558.0664824
78535	29265398 3366 240878 244474 1777.5 1800 91 486.85000610352 486.85000610352 44303.35055542 21569086.488312
78546	29268764 2962 241046 244474 1778.5 1800 87 0.973 11.200708441096 256.05226973564 1340.198616247
78545	29271726 3198 241046 244474 1778.5 1800 87 -4.5 2.5 -13.522529602051 240.78867520215
78544	29274924 3243 241003 244474 1778.25 1800 88 2.2693676948547 15.602480888367 1106.0821435452 15436.132761387
78543	29278167 3291 240960 244474 1778 1800 89 486.85000610352 486.85000610352 43329.650543213 21095040.631426
78542	29281458 3283 240960 244474 1778 1800 89 509.62515258789 785.82187652588 57215.129249573 37532053.827524
78553	29284741 2923 241219 244474 1779.5 1800 83 0.973 11.648172402475 263.11657320355 1456.9753841717
78552	29287664 2991 241219 244474 1779.5 1800 83 -4.5 2.5 -2.9461269378662 256.99062690623
78551	29290655 3095 241176 244474 1779.25 1800 84 4.9134683609009 15.725407600403 1150.3492193222 16575.638454554
78550	29293750 3143 241132 244474 1779 1800 85 483.14999389648 483.14999389648 41067.749481201 19841882.911185
78549	29296893 3123 241132 244474 1779 1800 85 169.95465087891 455.85583496094 26250.336120605 8819012.768562
78560	29300016 2622 241438 244474 1780.75 1800 78 0.973 11.648172402475 242.63833441689 1412.8530490322
78559	29302638 2795 241438 244474 1780.75 1800 78 -4.5 2.5 5.1075401306152 194.73348299502
78558	29305433 2904 241393 244474 1780.5 1800 79 5.6500000953674 16.002861022949 996.2105255127 13637.240258116
78557	29308337 2939 241348 244474 1780.25 1800 80 169.95465087891 416.53851318359 23728.414733887 7569366.2938366
78556	29311276 2960 241348 244474 1780.25 1800 80 486.85000610352 486.85000610352 38948.000488281 18961834.275439
78567	29314236 2344 241660 244474 1782 1800 73 0.973 11.648172402475 217.94640741888 1341.1434469275
78566	29316580 2624 241660 244474 1782 1800 73 -1.7171249389648 2.5 9.3775978088379 133.61701279594
78565	29319204 2720 241615 244474 1781.75 1800 74 5.6500000953674 15.64999961853 925.8947634697 12161.95680696
78564	29321924 2770 241570 244474 1781.5 1800 75 556.85772705078 785.82187652588 50360.831504822 34223504.293428
78563	29324694 2774 241570 244474 1781.5 1800 75 483.14999389648 483.14999389648 36236.249542236 17507543.745163
78574	29327468 2114 242213 244474 1785.25 1800 60 0.973 11.200708441096 208.61579811582 1229.5468945889
78573	29329582 2095 242213 244474 1785.25 1800 60 -2.4321899414062 2.5 24.740915298462 116.12269362207
78572	29331677 2239 242170 244474 1785 1800 61 5.6500000953674 15.02499961853 821.94981861115 11450.482083935
78571	29333916 2293 242127 244474 1784.75 1800 62 483.14999389648 483.14999389648 29955.299621582 14472902.829335
78570	29336209 2273 242127 244474 1784.75 1800 62 184.17810058594 385.80706787109 17171.252349854 5005697.2014906
78581	29338482 1732 242725 244474 1788.5 1800 47 1.9437757715463 11.200708441096 196.71090719329 1229.8789373984
78580	29340214 1686 242725 244474 1788.5 1800 47 -0.06561279296875 2.5 38.680978775024 94.176465429908
78579	29341900 1765 242686 244474 1788.25 1800 48 5.6500000953674 15.385828971863 655.45115280151 9347.4138479239
78578	29343665 1811 242647 244474 1788 1800 49 483.14999389648 483.14999389648 23674.349700928 11438261.913506
78577	29345476 1786 242647 244474 1788 1800 49 172.9296875 331.68084716797 11901.222045898 3012747.3619634
78588	29347262 1602 242846 244474 1789.25 1800 44 0.973 11.200708441096 176.07043865509 1155.1040495908
78587	29348864 1550 242846 244474 1789.25 1800 44 -0.46867370605469 2.5 35.213449478149 94.314265825193
78586	29350414 1651 242805 244474 1789 1800 45 5.6500000953674 15.02499961853 588.75889015198 8023.3194115199
78585	29352065 1697 242764 244474 1788.75 1800 46 643.45547485352 785.82187652588 33250.24294281 24126821.823307
78584	29353762 1701 242764 244474 1788.75 1800 46 483.14999389648 483.14999389648 22224.899719238 10737960.1637
72952	29355463 644 0 244473 0 1800 31 0 35 717 17933
72953	29356107 663 0 244473 0 1800 31 0 280 4264 792422
