version 2
run nodebug-20-20200606-13:03:21-21956
attr configname nodebug
attr datetime 20200606-13:03:21
attr experiment nodebug
attr inifile omnetpp.ini
attr iterationvars ""
attr iterationvars2 $repetition=20
attr measurement ""
attr network "\"org.car2x.veins.modules.application.ExtTraCIScenarioManagerLaunchd.IntersectionExampleScenario\""
attr processid 21956
attr repetition 20
attr replication #20
attr resultdir results
attr runnumber 20
attr seedset 20
param **.coreDebug false
param **.debug false
param *.**.nic.mac1609_4.bitrate 18Mbps
param *.**.nic.mac1609_4.txPower 20mW
param *.**.nic.mac1609_4.useServiceChannel false
param *.**.nic.phy80211p.analogueModels "xmldoc(\"config.xml\")"
param *.**.nic.phy80211p.decider "xmldoc(\"config.xml\")"
param *.**.nic.phy80211p.sensitivity -89dBm
param *.**.nic.phy80211p.thermalNoise -110dBm
param *.**.nic.phy80211p.usePropagationDelay true
param *.**.nic.phy80211p.useThermalNoise true
param *.annotations.draw false
param *.connectionManager.alpha 2.0
param *.connectionManager.carrierFrequency "5.890e9 Hz"
param *.connectionManager.pMax 20mW
param *.connectionManager.sat -89dBm
param *.connectionManager.sendDirect true
param *.manager.autoShutdown true
param *.manager.host "\"localhost\""
param *.manager.launchConfig "xmldoc(\"paramics.launchd.xml\")"
param *.manager.margin 25
param *.manager.moduleDisplayString "\"\""
param *.manager.moduleName "\"node\""
param *.manager.moduleType "\"org.car2x.veins.nodes.Car\""
param *.manager.port 9999
param *.manager.updateInterval 250ms
param *.node[*0].veinsmobility.accidentCount 0
param *.node[*0].veinsmobility.accidentDuration 30s
param *.node[*0].veinsmobility.accidentStart 75s
param *.node[*].appl.LiderSelectZoneRadio 55.0
param *.node[*].appl.ShareDataZoneRadio 110.0
param *.node[*].appl.TiempoSemaforo 30.0
param *.node[*].appl.beaconInterval 1s
param *.node[*].appl.beaconPriority 3
param *.node[*].appl.dataOnSch false
param *.node[*].appl.dataPriority 2
param *.node[*].appl.debug false
param *.node[*].appl.headerLength "256 bit"
param *.node[*].appl.maxOffset 0.005s
param *.node[*].appl.sendBeacons false
param *.node[*].appl.sendData true
param *.node[*].applType "\"Dummy\""
param *.node[*].mobilityType "\"TraCIMobility\""
param *.node[*].mobilityType.debug true
param *.node[*].veinsmobility.x 0
param *.node[*].veinsmobility.y 0
param *.node[*].veinsmobility.z 1.895
param *.node[*].veinsmobilityType "\"org.car2x.veins.modules.mobility.traci.TraCIMobility\""
param *.node[*].veinsmobilityType.debug true
param *.playgroundSizeX 8500m
param *.playgroundSizeY 8500m
param *.playgroundSizeZ 50m
param *.world.use2D false
param *.world.useTorus false

scalar IntersectionExampleScenario.node[1].appl 	VehicleRemoved 	0
scalar IntersectionExampleScenario.node[1].appl 	ArrivedAtDest 	1
scalar IntersectionExampleScenario.node[1].appl 	IntersectionEnterTime 	0.25
scalar IntersectionExampleScenario.node[1].appl 	IntersectionExitTime 	23.564813868375
scalar IntersectionExampleScenario.node[1].appl 	NumberOfCollisions 	0
scalar IntersectionExampleScenario.node[1].nic.phy80211p 	busyTime 	0
scalar IntersectionExampleScenario.node[1].nic.mac1609_4 	ReceivedUnicastPackets 	0
scalar IntersectionExampleScenario.node[1].nic.mac1609_4 	ReceivedBroadcasts 	0
scalar IntersectionExampleScenario.node[1].nic.mac1609_4 	SentPackets 	0
scalar IntersectionExampleScenario.node[1].nic.mac1609_4 	SNIRLostPackets 	0
scalar IntersectionExampleScenario.node[1].nic.mac1609_4 	RXTXLostPackets 	0
scalar IntersectionExampleScenario.node[1].nic.mac1609_4 	TotalLostPackets 	0
scalar IntersectionExampleScenario.node[1].nic.mac1609_4 	DroppedPacketsInMac 	0
scalar IntersectionExampleScenario.node[1].nic.mac1609_4 	TooLittleTime 	0
scalar IntersectionExampleScenario.node[1].nic.mac1609_4 	TimesIntoBackoff 	0
scalar IntersectionExampleScenario.node[1].nic.mac1609_4 	SlotsBackoff 	0
scalar IntersectionExampleScenario.node[1].nic.mac1609_4 	NumInternalContention 	0
scalar IntersectionExampleScenario.node[1].nic.mac1609_4 	totalBusyTime 	0
scalar IntersectionExampleScenario.node[1].veinsmobility 	startTime 	0.25
scalar IntersectionExampleScenario.node[1].veinsmobility 	totalTime 	39.5
scalar IntersectionExampleScenario.node[1].veinsmobility 	stopTime 	40
scalar IntersectionExampleScenario.node[1].veinsmobility 	minSpeed 	5.6500000953674
scalar IntersectionExampleScenario.node[1].veinsmobility 	maxSpeed 	16.27499961853
scalar IntersectionExampleScenario.node[1].veinsmobility 	totalDistance 	543.34183758371
scalar IntersectionExampleScenario.node[1].veinsmobility 	totalCO2Emission 	130.06573980034
scalar IntersectionExampleScenario.node[3].appl 	VehicleRemoved 	0
scalar IntersectionExampleScenario.node[3].appl 	ArrivedAtDest 	1
scalar IntersectionExampleScenario.node[3].appl 	IntersectionEnterTime 	3
scalar IntersectionExampleScenario.node[3].appl 	IntersectionExitTime 	25.254583038361
scalar IntersectionExampleScenario.node[3].appl 	NumberOfCollisions 	0
scalar IntersectionExampleScenario.node[3].nic.phy80211p 	busyTime 	0
scalar IntersectionExampleScenario.node[3].nic.mac1609_4 	ReceivedUnicastPackets 	0
scalar IntersectionExampleScenario.node[3].nic.mac1609_4 	ReceivedBroadcasts 	0
scalar IntersectionExampleScenario.node[3].nic.mac1609_4 	SentPackets 	0
scalar IntersectionExampleScenario.node[3].nic.mac1609_4 	SNIRLostPackets 	0
scalar IntersectionExampleScenario.node[3].nic.mac1609_4 	RXTXLostPackets 	0
scalar IntersectionExampleScenario.node[3].nic.mac1609_4 	TotalLostPackets 	0
scalar IntersectionExampleScenario.node[3].nic.mac1609_4 	DroppedPacketsInMac 	0
scalar IntersectionExampleScenario.node[3].nic.mac1609_4 	TooLittleTime 	0
scalar IntersectionExampleScenario.node[3].nic.mac1609_4 	TimesIntoBackoff 	0
scalar IntersectionExampleScenario.node[3].nic.mac1609_4 	SlotsBackoff 	0
scalar IntersectionExampleScenario.node[3].nic.mac1609_4 	NumInternalContention 	0
scalar IntersectionExampleScenario.node[3].nic.mac1609_4 	totalBusyTime 	0
scalar IntersectionExampleScenario.node[3].veinsmobility 	startTime 	3
scalar IntersectionExampleScenario.node[3].veinsmobility 	totalTime 	38
scalar IntersectionExampleScenario.node[3].veinsmobility 	stopTime 	41.25
scalar IntersectionExampleScenario.node[3].veinsmobility 	minSpeed 	5.6500000953674
scalar IntersectionExampleScenario.node[3].veinsmobility 	maxSpeed 	16.27499961853
scalar IntersectionExampleScenario.node[3].veinsmobility 	totalDistance 	554.32370758057
scalar IntersectionExampleScenario.node[3].veinsmobility 	totalCO2Emission 	121.15983077611
scalar IntersectionExampleScenario.node[4].appl 	VehicleRemoved 	0
scalar IntersectionExampleScenario.node[4].appl 	ArrivedAtDest 	1
scalar IntersectionExampleScenario.node[4].appl 	IntersectionEnterTime 	3
scalar IntersectionExampleScenario.node[4].appl 	IntersectionExitTime 	28.031850751577
scalar IntersectionExampleScenario.node[4].appl 	NumberOfCollisions 	0
scalar IntersectionExampleScenario.node[4].nic.phy80211p 	busyTime 	0
scalar IntersectionExampleScenario.node[4].nic.mac1609_4 	ReceivedUnicastPackets 	0
scalar IntersectionExampleScenario.node[4].nic.mac1609_4 	ReceivedBroadcasts 	0
scalar IntersectionExampleScenario.node[4].nic.mac1609_4 	SentPackets 	0
scalar IntersectionExampleScenario.node[4].nic.mac1609_4 	SNIRLostPackets 	0
scalar IntersectionExampleScenario.node[4].nic.mac1609_4 	RXTXLostPackets 	0
scalar IntersectionExampleScenario.node[4].nic.mac1609_4 	TotalLostPackets 	0
scalar IntersectionExampleScenario.node[4].nic.mac1609_4 	DroppedPacketsInMac 	0
scalar IntersectionExampleScenario.node[4].nic.mac1609_4 	TooLittleTime 	0
scalar IntersectionExampleScenario.node[4].nic.mac1609_4 	TimesIntoBackoff 	0
scalar IntersectionExampleScenario.node[4].nic.mac1609_4 	SlotsBackoff 	0
scalar IntersectionExampleScenario.node[4].nic.mac1609_4 	NumInternalContention 	0
scalar IntersectionExampleScenario.node[4].nic.mac1609_4 	totalBusyTime 	0
scalar IntersectionExampleScenario.node[4].veinsmobility 	startTime 	3
scalar IntersectionExampleScenario.node[4].veinsmobility 	totalTime 	42.25
scalar IntersectionExampleScenario.node[4].veinsmobility 	stopTime 	45.5
scalar IntersectionExampleScenario.node[4].veinsmobility 	minSpeed 	5.6500000953674
scalar IntersectionExampleScenario.node[4].veinsmobility 	maxSpeed 	15.02499961853
scalar IntersectionExampleScenario.node[4].veinsmobility 	totalDistance 	557.62703548692
scalar IntersectionExampleScenario.node[4].veinsmobility 	totalCO2Emission 	124.35177911825
scalar IntersectionExampleScenario.node[5].appl 	VehicleRemoved 	0
scalar IntersectionExampleScenario.node[5].appl 	ArrivedAtDest 	1
scalar IntersectionExampleScenario.node[5].appl 	IntersectionEnterTime 	5
scalar IntersectionExampleScenario.node[5].appl 	IntersectionExitTime 	29.522347565216
scalar IntersectionExampleScenario.node[5].appl 	NumberOfCollisions 	0
scalar IntersectionExampleScenario.node[5].nic.phy80211p 	busyTime 	0
scalar IntersectionExampleScenario.node[5].nic.mac1609_4 	ReceivedUnicastPackets 	0
scalar IntersectionExampleScenario.node[5].nic.mac1609_4 	ReceivedBroadcasts 	0
scalar IntersectionExampleScenario.node[5].nic.mac1609_4 	SentPackets 	0
scalar IntersectionExampleScenario.node[5].nic.mac1609_4 	SNIRLostPackets 	0
scalar IntersectionExampleScenario.node[5].nic.mac1609_4 	RXTXLostPackets 	0
scalar IntersectionExampleScenario.node[5].nic.mac1609_4 	TotalLostPackets 	0
scalar IntersectionExampleScenario.node[5].nic.mac1609_4 	DroppedPacketsInMac 	0
scalar IntersectionExampleScenario.node[5].nic.mac1609_4 	TooLittleTime 	0
scalar IntersectionExampleScenario.node[5].nic.mac1609_4 	TimesIntoBackoff 	0
scalar IntersectionExampleScenario.node[5].nic.mac1609_4 	SlotsBackoff 	0
scalar IntersectionExampleScenario.node[5].nic.mac1609_4 	NumInternalContention 	0
scalar IntersectionExampleScenario.node[5].nic.mac1609_4 	totalBusyTime 	0
scalar IntersectionExampleScenario.node[5].veinsmobility 	startTime 	5
scalar IntersectionExampleScenario.node[5].veinsmobility 	totalTime 	40.75
scalar IntersectionExampleScenario.node[5].veinsmobility 	stopTime 	46
scalar IntersectionExampleScenario.node[5].veinsmobility 	minSpeed 	5.6500000953674
scalar IntersectionExampleScenario.node[5].veinsmobility 	maxSpeed 	15.02499961853
scalar IntersectionExampleScenario.node[5].veinsmobility 	totalDistance 	570.48023223877
scalar IntersectionExampleScenario.node[5].veinsmobility 	totalCO2Emission 	117.81097033619
scalar IntersectionExampleScenario.node[0].appl 	VehicleRemoved 	0
scalar IntersectionExampleScenario.node[0].appl 	ArrivedAtDest 	1
scalar IntersectionExampleScenario.node[0].appl 	IntersectionEnterTime 	0.25
scalar IntersectionExampleScenario.node[0].appl 	IntersectionExitTime 	36.351979684347
scalar IntersectionExampleScenario.node[0].appl 	NumberOfCollisions 	0
scalar IntersectionExampleScenario.node[0].nic.phy80211p 	busyTime 	0
scalar IntersectionExampleScenario.node[0].nic.mac1609_4 	ReceivedUnicastPackets 	0
scalar IntersectionExampleScenario.node[0].nic.mac1609_4 	ReceivedBroadcasts 	0
scalar IntersectionExampleScenario.node[0].nic.mac1609_4 	SentPackets 	0
scalar IntersectionExampleScenario.node[0].nic.mac1609_4 	SNIRLostPackets 	0
scalar IntersectionExampleScenario.node[0].nic.mac1609_4 	RXTXLostPackets 	0
scalar IntersectionExampleScenario.node[0].nic.mac1609_4 	TotalLostPackets 	0
scalar IntersectionExampleScenario.node[0].nic.mac1609_4 	DroppedPacketsInMac 	0
scalar IntersectionExampleScenario.node[0].nic.mac1609_4 	TooLittleTime 	0
scalar IntersectionExampleScenario.node[0].nic.mac1609_4 	TimesIntoBackoff 	0
scalar IntersectionExampleScenario.node[0].nic.mac1609_4 	SlotsBackoff 	0
scalar IntersectionExampleScenario.node[0].nic.mac1609_4 	NumInternalContention 	0
scalar IntersectionExampleScenario.node[0].nic.mac1609_4 	totalBusyTime 	0
scalar IntersectionExampleScenario.node[0].veinsmobility 	startTime 	0.25
scalar IntersectionExampleScenario.node[0].veinsmobility 	totalTime 	52.25
scalar IntersectionExampleScenario.node[0].veinsmobility 	stopTime 	52.75
scalar IntersectionExampleScenario.node[0].veinsmobility 	minSpeed 	0
scalar IntersectionExampleScenario.node[0].veinsmobility 	maxSpeed 	15.375
scalar IntersectionExampleScenario.node[0].veinsmobility 	totalDistance 	549.86319841495
scalar IntersectionExampleScenario.node[0].veinsmobility 	totalCO2Emission 	142.59786327946
scalar IntersectionExampleScenario.node[6].appl 	VehicleRemoved 	0
scalar IntersectionExampleScenario.node[6].appl 	ArrivedAtDest 	1
scalar IntersectionExampleScenario.node[6].appl 	IntersectionEnterTime 	6.75
scalar IntersectionExampleScenario.node[6].appl 	IntersectionExitTime 	37.354937240394
scalar IntersectionExampleScenario.node[6].appl 	NumberOfCollisions 	0
scalar IntersectionExampleScenario.node[6].nic.phy80211p 	busyTime 	0
scalar IntersectionExampleScenario.node[6].nic.mac1609_4 	ReceivedUnicastPackets 	0
scalar IntersectionExampleScenario.node[6].nic.mac1609_4 	ReceivedBroadcasts 	0
scalar IntersectionExampleScenario.node[6].nic.mac1609_4 	SentPackets 	0
scalar IntersectionExampleScenario.node[6].nic.mac1609_4 	SNIRLostPackets 	0
scalar IntersectionExampleScenario.node[6].nic.mac1609_4 	RXTXLostPackets 	0
scalar IntersectionExampleScenario.node[6].nic.mac1609_4 	TotalLostPackets 	0
scalar IntersectionExampleScenario.node[6].nic.mac1609_4 	DroppedPacketsInMac 	0
scalar IntersectionExampleScenario.node[6].nic.mac1609_4 	TooLittleTime 	0
scalar IntersectionExampleScenario.node[6].nic.mac1609_4 	TimesIntoBackoff 	0
scalar IntersectionExampleScenario.node[6].nic.mac1609_4 	SlotsBackoff 	0
scalar IntersectionExampleScenario.node[6].nic.mac1609_4 	NumInternalContention 	0
scalar IntersectionExampleScenario.node[6].nic.mac1609_4 	totalBusyTime 	0
scalar IntersectionExampleScenario.node[6].veinsmobility 	startTime 	6.75
scalar IntersectionExampleScenario.node[6].veinsmobility 	totalTime 	47
scalar IntersectionExampleScenario.node[6].veinsmobility 	stopTime 	54
scalar IntersectionExampleScenario.node[6].veinsmobility 	minSpeed 	1.9680035114288
scalar IntersectionExampleScenario.node[6].veinsmobility 	maxSpeed 	15.5
scalar IntersectionExampleScenario.node[6].veinsmobility 	totalDistance 	554.8371887207
scalar IntersectionExampleScenario.node[6].veinsmobility 	totalCO2Emission 	133.46244291103
scalar IntersectionExampleScenario.node[2].appl 	VehicleRemoved 	0
scalar IntersectionExampleScenario.node[2].appl 	ArrivedAtDest 	1
scalar IntersectionExampleScenario.node[2].appl 	IntersectionEnterTime 	1.5
scalar IntersectionExampleScenario.node[2].appl 	IntersectionExitTime 	45.58982574119
scalar IntersectionExampleScenario.node[2].appl 	NumberOfCollisions 	0
scalar IntersectionExampleScenario.node[2].nic.phy80211p 	busyTime 	0
scalar IntersectionExampleScenario.node[2].nic.mac1609_4 	ReceivedUnicastPackets 	0
scalar IntersectionExampleScenario.node[2].nic.mac1609_4 	ReceivedBroadcasts 	0
scalar IntersectionExampleScenario.node[2].nic.mac1609_4 	SentPackets 	0
scalar IntersectionExampleScenario.node[2].nic.mac1609_4 	SNIRLostPackets 	0
scalar IntersectionExampleScenario.node[2].nic.mac1609_4 	RXTXLostPackets 	0
scalar IntersectionExampleScenario.node[2].nic.mac1609_4 	TotalLostPackets 	0
scalar IntersectionExampleScenario.node[2].nic.mac1609_4 	DroppedPacketsInMac 	0
scalar IntersectionExampleScenario.node[2].nic.mac1609_4 	TooLittleTime 	0
scalar IntersectionExampleScenario.node[2].nic.mac1609_4 	TimesIntoBackoff 	0
scalar IntersectionExampleScenario.node[2].nic.mac1609_4 	SlotsBackoff 	0
scalar IntersectionExampleScenario.node[2].nic.mac1609_4 	NumInternalContention 	0
scalar IntersectionExampleScenario.node[2].nic.mac1609_4 	totalBusyTime 	0
scalar IntersectionExampleScenario.node[2].veinsmobility 	startTime 	1.5
scalar IntersectionExampleScenario.node[2].veinsmobility 	totalTime 	60.5
scalar IntersectionExampleScenario.node[2].veinsmobility 	stopTime 	62.25
scalar IntersectionExampleScenario.node[2].veinsmobility 	minSpeed 	0
scalar IntersectionExampleScenario.node[2].veinsmobility 	maxSpeed 	15.875
scalar IntersectionExampleScenario.node[2].veinsmobility 	totalDistance 	543.8216238156
scalar IntersectionExampleScenario.node[2].veinsmobility 	totalCO2Emission 	153.98025936636
scalar IntersectionExampleScenario.node[7].appl 	VehicleRemoved 	0
scalar IntersectionExampleScenario.node[7].appl 	ArrivedAtDest 	1
scalar IntersectionExampleScenario.node[7].appl 	IntersectionEnterTime 	7
scalar IntersectionExampleScenario.node[7].appl 	IntersectionExitTime 	48.33134823927
scalar IntersectionExampleScenario.node[7].appl 	NumberOfCollisions 	0
scalar IntersectionExampleScenario.node[7].nic.phy80211p 	busyTime 	0
scalar IntersectionExampleScenario.node[7].nic.mac1609_4 	ReceivedUnicastPackets 	0
scalar IntersectionExampleScenario.node[7].nic.mac1609_4 	ReceivedBroadcasts 	0
scalar IntersectionExampleScenario.node[7].nic.mac1609_4 	SentPackets 	0
scalar IntersectionExampleScenario.node[7].nic.mac1609_4 	SNIRLostPackets 	0
scalar IntersectionExampleScenario.node[7].nic.mac1609_4 	RXTXLostPackets 	0
scalar IntersectionExampleScenario.node[7].nic.mac1609_4 	TotalLostPackets 	0
scalar IntersectionExampleScenario.node[7].nic.mac1609_4 	DroppedPacketsInMac 	0
scalar IntersectionExampleScenario.node[7].nic.mac1609_4 	TooLittleTime 	0
scalar IntersectionExampleScenario.node[7].nic.mac1609_4 	TimesIntoBackoff 	0
scalar IntersectionExampleScenario.node[7].nic.mac1609_4 	SlotsBackoff 	0
scalar IntersectionExampleScenario.node[7].nic.mac1609_4 	NumInternalContention 	0
scalar IntersectionExampleScenario.node[7].nic.mac1609_4 	totalBusyTime 	0
scalar IntersectionExampleScenario.node[7].veinsmobility 	startTime 	7
scalar IntersectionExampleScenario.node[7].veinsmobility 	totalTime 	57.5
scalar IntersectionExampleScenario.node[7].veinsmobility 	stopTime 	64.75
scalar IntersectionExampleScenario.node[7].veinsmobility 	minSpeed 	0
scalar IntersectionExampleScenario.node[7].veinsmobility 	maxSpeed 	15.875
scalar IntersectionExampleScenario.node[7].veinsmobility 	totalDistance 	542.77824180031
scalar IntersectionExampleScenario.node[7].veinsmobility 	totalCO2Emission 	150.14726929591
scalar IntersectionExampleScenario.node[12].appl 	VehicleRemoved 	0
scalar IntersectionExampleScenario.node[12].appl 	ArrivedAtDest 	1
scalar IntersectionExampleScenario.node[12].appl 	IntersectionEnterTime 	23.75
scalar IntersectionExampleScenario.node[12].appl 	IntersectionExitTime 	50.546494372684
scalar IntersectionExampleScenario.node[12].appl 	NumberOfCollisions 	0
scalar IntersectionExampleScenario.node[12].nic.phy80211p 	busyTime 	0
scalar IntersectionExampleScenario.node[12].nic.mac1609_4 	ReceivedUnicastPackets 	0
scalar IntersectionExampleScenario.node[12].nic.mac1609_4 	ReceivedBroadcasts 	0
scalar IntersectionExampleScenario.node[12].nic.mac1609_4 	SentPackets 	0
scalar IntersectionExampleScenario.node[12].nic.mac1609_4 	SNIRLostPackets 	0
scalar IntersectionExampleScenario.node[12].nic.mac1609_4 	RXTXLostPackets 	0
scalar IntersectionExampleScenario.node[12].nic.mac1609_4 	TotalLostPackets 	0
scalar IntersectionExampleScenario.node[12].nic.mac1609_4 	DroppedPacketsInMac 	0
scalar IntersectionExampleScenario.node[12].nic.mac1609_4 	TooLittleTime 	0
scalar IntersectionExampleScenario.node[12].nic.mac1609_4 	TimesIntoBackoff 	0
scalar IntersectionExampleScenario.node[12].nic.mac1609_4 	SlotsBackoff 	0
scalar IntersectionExampleScenario.node[12].nic.mac1609_4 	NumInternalContention 	0
scalar IntersectionExampleScenario.node[12].nic.mac1609_4 	totalBusyTime 	0
scalar IntersectionExampleScenario.node[12].veinsmobility 	startTime 	23.75
scalar IntersectionExampleScenario.node[12].veinsmobility 	totalTime 	43
scalar IntersectionExampleScenario.node[12].veinsmobility 	stopTime 	67
scalar IntersectionExampleScenario.node[12].veinsmobility 	minSpeed 	5.6500000953674
scalar IntersectionExampleScenario.node[12].veinsmobility 	maxSpeed 	15.64999961853
scalar IntersectionExampleScenario.node[12].veinsmobility 	totalDistance 	550.9236519219
scalar IntersectionExampleScenario.node[12].veinsmobility 	totalCO2Emission 	137.41583522207
scalar IntersectionExampleScenario.node[13].appl 	VehicleRemoved 	0
scalar IntersectionExampleScenario.node[13].appl 	ArrivedAtDest 	1
scalar IntersectionExampleScenario.node[13].appl 	IntersectionEnterTime 	24
scalar IntersectionExampleScenario.node[13].appl 	IntersectionExitTime 	52.774481777975
scalar IntersectionExampleScenario.node[13].appl 	NumberOfCollisions 	0
scalar IntersectionExampleScenario.node[13].nic.phy80211p 	busyTime 	0
scalar IntersectionExampleScenario.node[13].nic.mac1609_4 	ReceivedUnicastPackets 	0
scalar IntersectionExampleScenario.node[13].nic.mac1609_4 	ReceivedBroadcasts 	0
scalar IntersectionExampleScenario.node[13].nic.mac1609_4 	SentPackets 	0
scalar IntersectionExampleScenario.node[13].nic.mac1609_4 	SNIRLostPackets 	0
scalar IntersectionExampleScenario.node[13].nic.mac1609_4 	RXTXLostPackets 	0
scalar IntersectionExampleScenario.node[13].nic.mac1609_4 	TotalLostPackets 	0
scalar IntersectionExampleScenario.node[13].nic.mac1609_4 	DroppedPacketsInMac 	0
scalar IntersectionExampleScenario.node[13].nic.mac1609_4 	TooLittleTime 	0
scalar IntersectionExampleScenario.node[13].nic.mac1609_4 	TimesIntoBackoff 	0
scalar IntersectionExampleScenario.node[13].nic.mac1609_4 	SlotsBackoff 	0
scalar IntersectionExampleScenario.node[13].nic.mac1609_4 	NumInternalContention 	0
scalar IntersectionExampleScenario.node[13].nic.mac1609_4 	totalBusyTime 	0
scalar IntersectionExampleScenario.node[13].veinsmobility 	startTime 	24
scalar IntersectionExampleScenario.node[13].veinsmobility 	totalTime 	45.75
scalar IntersectionExampleScenario.node[13].veinsmobility 	stopTime 	70
scalar IntersectionExampleScenario.node[13].veinsmobility 	minSpeed 	5.6500000953674
scalar IntersectionExampleScenario.node[13].veinsmobility 	maxSpeed 	15.253529548645
scalar IntersectionExampleScenario.node[13].veinsmobility 	totalDistance 	567.79632262919
scalar IntersectionExampleScenario.node[13].veinsmobility 	totalCO2Emission 	142.90546846186
scalar IntersectionExampleScenario.node[10].appl 	VehicleRemoved 	0
scalar IntersectionExampleScenario.node[10].appl 	ArrivedAtDest 	1
scalar IntersectionExampleScenario.node[10].appl 	IntersectionEnterTime 	23
scalar IntersectionExampleScenario.node[10].appl 	IntersectionExitTime 	54.584255207737
scalar IntersectionExampleScenario.node[10].appl 	NumberOfCollisions 	0
scalar IntersectionExampleScenario.node[10].nic.phy80211p 	busyTime 	0
scalar IntersectionExampleScenario.node[10].nic.mac1609_4 	ReceivedUnicastPackets 	0
scalar IntersectionExampleScenario.node[10].nic.mac1609_4 	ReceivedBroadcasts 	0
scalar IntersectionExampleScenario.node[10].nic.mac1609_4 	SentPackets 	0
scalar IntersectionExampleScenario.node[10].nic.mac1609_4 	SNIRLostPackets 	0
scalar IntersectionExampleScenario.node[10].nic.mac1609_4 	RXTXLostPackets 	0
scalar IntersectionExampleScenario.node[10].nic.mac1609_4 	TotalLostPackets 	0
scalar IntersectionExampleScenario.node[10].nic.mac1609_4 	DroppedPacketsInMac 	0
scalar IntersectionExampleScenario.node[10].nic.mac1609_4 	TooLittleTime 	0
scalar IntersectionExampleScenario.node[10].nic.mac1609_4 	TimesIntoBackoff 	0
scalar IntersectionExampleScenario.node[10].nic.mac1609_4 	SlotsBackoff 	0
scalar IntersectionExampleScenario.node[10].nic.mac1609_4 	NumInternalContention 	0
scalar IntersectionExampleScenario.node[10].nic.mac1609_4 	totalBusyTime 	0
scalar IntersectionExampleScenario.node[10].veinsmobility 	startTime 	23
scalar IntersectionExampleScenario.node[10].veinsmobility 	totalTime 	47.75
scalar IntersectionExampleScenario.node[10].veinsmobility 	stopTime 	71
scalar IntersectionExampleScenario.node[10].veinsmobility 	minSpeed 	0
scalar IntersectionExampleScenario.node[10].veinsmobility 	maxSpeed 	16.5
scalar IntersectionExampleScenario.node[10].veinsmobility 	totalDistance 	546.10829068572
scalar IntersectionExampleScenario.node[10].veinsmobility 	totalCO2Emission 	145.61304072226
scalar IntersectionExampleScenario.node[8].appl 	VehicleRemoved 	0
scalar IntersectionExampleScenario.node[8].appl 	ArrivedAtDest 	1
scalar IntersectionExampleScenario.node[8].appl 	IntersectionEnterTime 	13.5
scalar IntersectionExampleScenario.node[8].appl 	IntersectionExitTime 	55.310123017029
scalar IntersectionExampleScenario.node[8].appl 	NumberOfCollisions 	0
scalar IntersectionExampleScenario.node[8].nic.phy80211p 	busyTime 	0
scalar IntersectionExampleScenario.node[8].nic.mac1609_4 	ReceivedUnicastPackets 	0
scalar IntersectionExampleScenario.node[8].nic.mac1609_4 	ReceivedBroadcasts 	0
scalar IntersectionExampleScenario.node[8].nic.mac1609_4 	SentPackets 	0
scalar IntersectionExampleScenario.node[8].nic.mac1609_4 	SNIRLostPackets 	0
scalar IntersectionExampleScenario.node[8].nic.mac1609_4 	RXTXLostPackets 	0
scalar IntersectionExampleScenario.node[8].nic.mac1609_4 	TotalLostPackets 	0
scalar IntersectionExampleScenario.node[8].nic.mac1609_4 	DroppedPacketsInMac 	0
scalar IntersectionExampleScenario.node[8].nic.mac1609_4 	TooLittleTime 	0
scalar IntersectionExampleScenario.node[8].nic.mac1609_4 	TimesIntoBackoff 	0
scalar IntersectionExampleScenario.node[8].nic.mac1609_4 	SlotsBackoff 	0
scalar IntersectionExampleScenario.node[8].nic.mac1609_4 	NumInternalContention 	0
scalar IntersectionExampleScenario.node[8].nic.mac1609_4 	totalBusyTime 	0
scalar IntersectionExampleScenario.node[8].veinsmobility 	startTime 	13.5
scalar IntersectionExampleScenario.node[8].veinsmobility 	totalTime 	58
scalar IntersectionExampleScenario.node[8].veinsmobility 	stopTime 	71.75
scalar IntersectionExampleScenario.node[8].veinsmobility 	minSpeed 	0
scalar IntersectionExampleScenario.node[8].veinsmobility 	maxSpeed 	15.375
scalar IntersectionExampleScenario.node[8].veinsmobility 	totalDistance 	553.37905883789
scalar IntersectionExampleScenario.node[8].veinsmobility 	totalCO2Emission 	149.0677291991
scalar IntersectionExampleScenario.node[9].appl 	VehicleRemoved 	0
scalar IntersectionExampleScenario.node[9].appl 	ArrivedAtDest 	1
scalar IntersectionExampleScenario.node[9].appl 	IntersectionEnterTime 	17.5
scalar IntersectionExampleScenario.node[9].appl 	IntersectionExitTime 	56.788813943916
scalar IntersectionExampleScenario.node[9].appl 	NumberOfCollisions 	0
scalar IntersectionExampleScenario.node[9].nic.phy80211p 	busyTime 	0
scalar IntersectionExampleScenario.node[9].nic.mac1609_4 	ReceivedUnicastPackets 	0
scalar IntersectionExampleScenario.node[9].nic.mac1609_4 	ReceivedBroadcasts 	0
scalar IntersectionExampleScenario.node[9].nic.mac1609_4 	SentPackets 	0
scalar IntersectionExampleScenario.node[9].nic.mac1609_4 	SNIRLostPackets 	0
scalar IntersectionExampleScenario.node[9].nic.mac1609_4 	RXTXLostPackets 	0
scalar IntersectionExampleScenario.node[9].nic.mac1609_4 	TotalLostPackets 	0
scalar IntersectionExampleScenario.node[9].nic.mac1609_4 	DroppedPacketsInMac 	0
scalar IntersectionExampleScenario.node[9].nic.mac1609_4 	TooLittleTime 	0
scalar IntersectionExampleScenario.node[9].nic.mac1609_4 	TimesIntoBackoff 	0
scalar IntersectionExampleScenario.node[9].nic.mac1609_4 	SlotsBackoff 	0
scalar IntersectionExampleScenario.node[9].nic.mac1609_4 	NumInternalContention 	0
scalar IntersectionExampleScenario.node[9].nic.mac1609_4 	totalBusyTime 	0
scalar IntersectionExampleScenario.node[9].veinsmobility 	startTime 	17.5
scalar IntersectionExampleScenario.node[9].veinsmobility 	totalTime 	55.5
scalar IntersectionExampleScenario.node[9].veinsmobility 	stopTime 	73.25
scalar IntersectionExampleScenario.node[9].veinsmobility 	minSpeed 	0
scalar IntersectionExampleScenario.node[9].veinsmobility 	maxSpeed 	15.465605735779
scalar IntersectionExampleScenario.node[9].veinsmobility 	totalDistance 	556.88882253135
scalar IntersectionExampleScenario.node[9].veinsmobility 	totalCO2Emission 	147.89911556247
scalar IntersectionExampleScenario.node[16].appl 	VehicleRemoved 	0
scalar IntersectionExampleScenario.node[16].appl 	ArrivedAtDest 	1
scalar IntersectionExampleScenario.node[16].appl 	IntersectionEnterTime 	30
scalar IntersectionExampleScenario.node[16].appl 	IntersectionExitTime 	59.829244172462
scalar IntersectionExampleScenario.node[16].appl 	NumberOfCollisions 	0
scalar IntersectionExampleScenario.node[16].nic.phy80211p 	busyTime 	0
scalar IntersectionExampleScenario.node[16].nic.mac1609_4 	ReceivedUnicastPackets 	0
scalar IntersectionExampleScenario.node[16].nic.mac1609_4 	ReceivedBroadcasts 	0
scalar IntersectionExampleScenario.node[16].nic.mac1609_4 	SentPackets 	0
scalar IntersectionExampleScenario.node[16].nic.mac1609_4 	SNIRLostPackets 	0
scalar IntersectionExampleScenario.node[16].nic.mac1609_4 	RXTXLostPackets 	0
scalar IntersectionExampleScenario.node[16].nic.mac1609_4 	TotalLostPackets 	0
scalar IntersectionExampleScenario.node[16].nic.mac1609_4 	DroppedPacketsInMac 	0
scalar IntersectionExampleScenario.node[16].nic.mac1609_4 	TooLittleTime 	0
scalar IntersectionExampleScenario.node[16].nic.mac1609_4 	TimesIntoBackoff 	0
scalar IntersectionExampleScenario.node[16].nic.mac1609_4 	SlotsBackoff 	0
scalar IntersectionExampleScenario.node[16].nic.mac1609_4 	NumInternalContention 	0
scalar IntersectionExampleScenario.node[16].nic.mac1609_4 	totalBusyTime 	0
scalar IntersectionExampleScenario.node[16].veinsmobility 	startTime 	30
scalar IntersectionExampleScenario.node[16].veinsmobility 	totalTime 	45.25
scalar IntersectionExampleScenario.node[16].veinsmobility 	stopTime 	75.5
scalar IntersectionExampleScenario.node[16].veinsmobility 	minSpeed 	5.0764751434326
scalar IntersectionExampleScenario.node[16].veinsmobility 	maxSpeed 	15.958181381226
scalar IntersectionExampleScenario.node[16].veinsmobility 	totalDistance 	567.43556213379
scalar IntersectionExampleScenario.node[16].veinsmobility 	totalCO2Emission 	145.17469075976
scalar IntersectionExampleScenario.node[11].appl 	VehicleRemoved 	0
scalar IntersectionExampleScenario.node[11].appl 	ArrivedAtDest 	1
scalar IntersectionExampleScenario.node[11].appl 	IntersectionEnterTime 	23
scalar IntersectionExampleScenario.node[11].appl 	IntersectionExitTime 	58.786916876736
scalar IntersectionExampleScenario.node[11].appl 	NumberOfCollisions 	0
scalar IntersectionExampleScenario.node[11].nic.phy80211p 	busyTime 	0
scalar IntersectionExampleScenario.node[11].nic.mac1609_4 	ReceivedUnicastPackets 	0
scalar IntersectionExampleScenario.node[11].nic.mac1609_4 	ReceivedBroadcasts 	0
scalar IntersectionExampleScenario.node[11].nic.mac1609_4 	SentPackets 	0
scalar IntersectionExampleScenario.node[11].nic.mac1609_4 	SNIRLostPackets 	0
scalar IntersectionExampleScenario.node[11].nic.mac1609_4 	RXTXLostPackets 	0
scalar IntersectionExampleScenario.node[11].nic.mac1609_4 	TotalLostPackets 	0
scalar IntersectionExampleScenario.node[11].nic.mac1609_4 	DroppedPacketsInMac 	0
scalar IntersectionExampleScenario.node[11].nic.mac1609_4 	TooLittleTime 	0
scalar IntersectionExampleScenario.node[11].nic.mac1609_4 	TimesIntoBackoff 	0
scalar IntersectionExampleScenario.node[11].nic.mac1609_4 	SlotsBackoff 	0
scalar IntersectionExampleScenario.node[11].nic.mac1609_4 	NumInternalContention 	0
scalar IntersectionExampleScenario.node[11].nic.mac1609_4 	totalBusyTime 	0
scalar IntersectionExampleScenario.node[11].veinsmobility 	startTime 	23
scalar IntersectionExampleScenario.node[11].veinsmobility 	totalTime 	52.5
scalar IntersectionExampleScenario.node[11].veinsmobility 	stopTime 	75.75
scalar IntersectionExampleScenario.node[11].veinsmobility 	minSpeed 	0
scalar IntersectionExampleScenario.node[11].veinsmobility 	maxSpeed 	15.02499961853
scalar IntersectionExampleScenario.node[11].veinsmobility 	totalDistance 	553.19006347656
scalar IntersectionExampleScenario.node[11].veinsmobility 	totalCO2Emission 	137.83701525715
scalar IntersectionExampleScenario.node[14].appl 	VehicleRemoved 	0
scalar IntersectionExampleScenario.node[14].appl 	ArrivedAtDest 	1
scalar IntersectionExampleScenario.node[14].appl 	IntersectionEnterTime 	26.75
scalar IntersectionExampleScenario.node[14].appl 	IntersectionExitTime 	59.270059339615
scalar IntersectionExampleScenario.node[14].appl 	NumberOfCollisions 	0
scalar IntersectionExampleScenario.node[14].nic.phy80211p 	busyTime 	0
scalar IntersectionExampleScenario.node[14].nic.mac1609_4 	ReceivedUnicastPackets 	0
scalar IntersectionExampleScenario.node[14].nic.mac1609_4 	ReceivedBroadcasts 	0
scalar IntersectionExampleScenario.node[14].nic.mac1609_4 	SentPackets 	0
scalar IntersectionExampleScenario.node[14].nic.mac1609_4 	SNIRLostPackets 	0
scalar IntersectionExampleScenario.node[14].nic.mac1609_4 	RXTXLostPackets 	0
scalar IntersectionExampleScenario.node[14].nic.mac1609_4 	TotalLostPackets 	0
scalar IntersectionExampleScenario.node[14].nic.mac1609_4 	DroppedPacketsInMac 	0
scalar IntersectionExampleScenario.node[14].nic.mac1609_4 	TooLittleTime 	0
scalar IntersectionExampleScenario.node[14].nic.mac1609_4 	TimesIntoBackoff 	0
scalar IntersectionExampleScenario.node[14].nic.mac1609_4 	SlotsBackoff 	0
scalar IntersectionExampleScenario.node[14].nic.mac1609_4 	NumInternalContention 	0
scalar IntersectionExampleScenario.node[14].nic.mac1609_4 	totalBusyTime 	0
scalar IntersectionExampleScenario.node[14].veinsmobility 	startTime 	26.75
scalar IntersectionExampleScenario.node[14].veinsmobility 	totalTime 	49
scalar IntersectionExampleScenario.node[14].veinsmobility 	stopTime 	76
scalar IntersectionExampleScenario.node[14].veinsmobility 	minSpeed 	0
scalar IntersectionExampleScenario.node[14].veinsmobility 	maxSpeed 	15.64999961853
scalar IntersectionExampleScenario.node[14].veinsmobility 	totalDistance 	551.41151708298
scalar IntersectionExampleScenario.node[14].veinsmobility 	totalCO2Emission 	143.08026512489
scalar IntersectionExampleScenario.node[17].appl 	VehicleRemoved 	0
scalar IntersectionExampleScenario.node[17].appl 	ArrivedAtDest 	1
scalar IntersectionExampleScenario.node[17].appl 	IntersectionEnterTime 	36.25
scalar IntersectionExampleScenario.node[17].appl 	IntersectionExitTime 	61.54507019397
scalar IntersectionExampleScenario.node[17].appl 	NumberOfCollisions 	0
scalar IntersectionExampleScenario.node[17].nic.phy80211p 	busyTime 	0
scalar IntersectionExampleScenario.node[17].nic.mac1609_4 	ReceivedUnicastPackets 	0
scalar IntersectionExampleScenario.node[17].nic.mac1609_4 	ReceivedBroadcasts 	0
scalar IntersectionExampleScenario.node[17].nic.mac1609_4 	SentPackets 	0
scalar IntersectionExampleScenario.node[17].nic.mac1609_4 	SNIRLostPackets 	0
scalar IntersectionExampleScenario.node[17].nic.mac1609_4 	RXTXLostPackets 	0
scalar IntersectionExampleScenario.node[17].nic.mac1609_4 	TotalLostPackets 	0
scalar IntersectionExampleScenario.node[17].nic.mac1609_4 	DroppedPacketsInMac 	0
scalar IntersectionExampleScenario.node[17].nic.mac1609_4 	TooLittleTime 	0
scalar IntersectionExampleScenario.node[17].nic.mac1609_4 	TimesIntoBackoff 	0
scalar IntersectionExampleScenario.node[17].nic.mac1609_4 	SlotsBackoff 	0
scalar IntersectionExampleScenario.node[17].nic.mac1609_4 	NumInternalContention 	0
scalar IntersectionExampleScenario.node[17].nic.mac1609_4 	totalBusyTime 	0
scalar IntersectionExampleScenario.node[17].veinsmobility 	startTime 	36.25
scalar IntersectionExampleScenario.node[17].veinsmobility 	totalTime 	42
scalar IntersectionExampleScenario.node[17].veinsmobility 	stopTime 	78.5
scalar IntersectionExampleScenario.node[17].veinsmobility 	minSpeed 	5.6500000953674
scalar IntersectionExampleScenario.node[17].veinsmobility 	maxSpeed 	15.073283195496
scalar IntersectionExampleScenario.node[17].veinsmobility 	totalDistance 	552.29008592729
scalar IntersectionExampleScenario.node[17].veinsmobility 	totalCO2Emission 	134.3611861901
scalar IntersectionExampleScenario.node[19].appl 	VehicleRemoved 	0
scalar IntersectionExampleScenario.node[19].appl 	ArrivedAtDest 	1
scalar IntersectionExampleScenario.node[19].appl 	IntersectionEnterTime 	39
scalar IntersectionExampleScenario.node[19].appl 	IntersectionExitTime 	63.036944078427
scalar IntersectionExampleScenario.node[19].appl 	NumberOfCollisions 	0
scalar IntersectionExampleScenario.node[19].nic.phy80211p 	busyTime 	0
scalar IntersectionExampleScenario.node[19].nic.mac1609_4 	ReceivedUnicastPackets 	0
scalar IntersectionExampleScenario.node[19].nic.mac1609_4 	ReceivedBroadcasts 	0
scalar IntersectionExampleScenario.node[19].nic.mac1609_4 	SentPackets 	0
scalar IntersectionExampleScenario.node[19].nic.mac1609_4 	SNIRLostPackets 	0
scalar IntersectionExampleScenario.node[19].nic.mac1609_4 	RXTXLostPackets 	0
scalar IntersectionExampleScenario.node[19].nic.mac1609_4 	TotalLostPackets 	0
scalar IntersectionExampleScenario.node[19].nic.mac1609_4 	DroppedPacketsInMac 	0
scalar IntersectionExampleScenario.node[19].nic.mac1609_4 	TooLittleTime 	0
scalar IntersectionExampleScenario.node[19].nic.mac1609_4 	TimesIntoBackoff 	0
scalar IntersectionExampleScenario.node[19].nic.mac1609_4 	SlotsBackoff 	0
scalar IntersectionExampleScenario.node[19].nic.mac1609_4 	NumInternalContention 	0
scalar IntersectionExampleScenario.node[19].nic.mac1609_4 	totalBusyTime 	0
scalar IntersectionExampleScenario.node[19].veinsmobility 	startTime 	39
scalar IntersectionExampleScenario.node[19].veinsmobility 	totalTime 	40.25
scalar IntersectionExampleScenario.node[19].veinsmobility 	stopTime 	79.5
scalar IntersectionExampleScenario.node[19].veinsmobility 	minSpeed 	5.6500000953674
scalar IntersectionExampleScenario.node[19].veinsmobility 	maxSpeed 	15.236651420593
scalar IntersectionExampleScenario.node[19].veinsmobility 	totalDistance 	552.61136627197
scalar IntersectionExampleScenario.node[19].veinsmobility 	totalCO2Emission 	124.29635760909
scalar IntersectionExampleScenario.node[20].appl 	VehicleRemoved 	0
scalar IntersectionExampleScenario.node[20].appl 	ArrivedAtDest 	1
scalar IntersectionExampleScenario.node[20].appl 	IntersectionEnterTime 	43
scalar IntersectionExampleScenario.node[20].appl 	IntersectionExitTime 	65.537408985081
scalar IntersectionExampleScenario.node[20].appl 	NumberOfCollisions 	0
scalar IntersectionExampleScenario.node[20].nic.phy80211p 	busyTime 	0
scalar IntersectionExampleScenario.node[20].nic.mac1609_4 	ReceivedUnicastPackets 	0
scalar IntersectionExampleScenario.node[20].nic.mac1609_4 	ReceivedBroadcasts 	0
scalar IntersectionExampleScenario.node[20].nic.mac1609_4 	SentPackets 	0
scalar IntersectionExampleScenario.node[20].nic.mac1609_4 	SNIRLostPackets 	0
scalar IntersectionExampleScenario.node[20].nic.mac1609_4 	RXTXLostPackets 	0
scalar IntersectionExampleScenario.node[20].nic.mac1609_4 	TotalLostPackets 	0
scalar IntersectionExampleScenario.node[20].nic.mac1609_4 	DroppedPacketsInMac 	0
scalar IntersectionExampleScenario.node[20].nic.mac1609_4 	TooLittleTime 	0
scalar IntersectionExampleScenario.node[20].nic.mac1609_4 	TimesIntoBackoff 	0
scalar IntersectionExampleScenario.node[20].nic.mac1609_4 	SlotsBackoff 	0
scalar IntersectionExampleScenario.node[20].nic.mac1609_4 	NumInternalContention 	0
scalar IntersectionExampleScenario.node[20].nic.mac1609_4 	totalBusyTime 	0
scalar IntersectionExampleScenario.node[20].veinsmobility 	startTime 	43
scalar IntersectionExampleScenario.node[20].veinsmobility 	totalTime 	38.25
scalar IntersectionExampleScenario.node[20].veinsmobility 	stopTime 	81.5
scalar IntersectionExampleScenario.node[20].veinsmobility 	minSpeed 	5.6500000953674
scalar IntersectionExampleScenario.node[20].veinsmobility 	maxSpeed 	15.857221603394
scalar IntersectionExampleScenario.node[20].veinsmobility 	totalDistance 	555.0199432373
scalar IntersectionExampleScenario.node[20].veinsmobility 	totalCO2Emission 	120.70555539261
scalar IntersectionExampleScenario.node[15].appl 	VehicleRemoved 	0
scalar IntersectionExampleScenario.node[15].appl 	ArrivedAtDest 	1
scalar IntersectionExampleScenario.node[15].appl 	IntersectionEnterTime 	27.75
scalar IntersectionExampleScenario.node[15].appl 	IntersectionExitTime 	68.306936819776
scalar IntersectionExampleScenario.node[15].appl 	NumberOfCollisions 	0
scalar IntersectionExampleScenario.node[15].nic.phy80211p 	busyTime 	0
scalar IntersectionExampleScenario.node[15].nic.mac1609_4 	ReceivedUnicastPackets 	0
scalar IntersectionExampleScenario.node[15].nic.mac1609_4 	ReceivedBroadcasts 	0
scalar IntersectionExampleScenario.node[15].nic.mac1609_4 	SentPackets 	0
scalar IntersectionExampleScenario.node[15].nic.mac1609_4 	SNIRLostPackets 	0
scalar IntersectionExampleScenario.node[15].nic.mac1609_4 	RXTXLostPackets 	0
scalar IntersectionExampleScenario.node[15].nic.mac1609_4 	TotalLostPackets 	0
scalar IntersectionExampleScenario.node[15].nic.mac1609_4 	DroppedPacketsInMac 	0
scalar IntersectionExampleScenario.node[15].nic.mac1609_4 	TooLittleTime 	0
scalar IntersectionExampleScenario.node[15].nic.mac1609_4 	TimesIntoBackoff 	0
scalar IntersectionExampleScenario.node[15].nic.mac1609_4 	SlotsBackoff 	0
scalar IntersectionExampleScenario.node[15].nic.mac1609_4 	NumInternalContention 	0
scalar IntersectionExampleScenario.node[15].nic.mac1609_4 	totalBusyTime 	0
scalar IntersectionExampleScenario.node[15].veinsmobility 	startTime 	27.75
scalar IntersectionExampleScenario.node[15].veinsmobility 	totalTime 	55.5
scalar IntersectionExampleScenario.node[15].veinsmobility 	stopTime 	83.5
scalar IntersectionExampleScenario.node[15].veinsmobility 	minSpeed 	0
scalar IntersectionExampleScenario.node[15].veinsmobility 	maxSpeed 	16.89999961853
scalar IntersectionExampleScenario.node[15].veinsmobility 	totalDistance 	553.56958007812
scalar IntersectionExampleScenario.node[15].veinsmobility 	totalCO2Emission 	159.50337519232
scalar IntersectionExampleScenario.node[18].appl 	VehicleRemoved 	0
scalar IntersectionExampleScenario.node[18].appl 	ArrivedAtDest 	1
scalar IntersectionExampleScenario.node[18].appl 	IntersectionEnterTime 	38.75
scalar IntersectionExampleScenario.node[18].appl 	IntersectionExitTime 	77.512647797877
scalar IntersectionExampleScenario.node[18].appl 	NumberOfCollisions 	0
scalar IntersectionExampleScenario.node[18].nic.phy80211p 	busyTime 	0
scalar IntersectionExampleScenario.node[18].nic.mac1609_4 	ReceivedUnicastPackets 	0
scalar IntersectionExampleScenario.node[18].nic.mac1609_4 	ReceivedBroadcasts 	0
scalar IntersectionExampleScenario.node[18].nic.mac1609_4 	SentPackets 	0
scalar IntersectionExampleScenario.node[18].nic.mac1609_4 	SNIRLostPackets 	0
scalar IntersectionExampleScenario.node[18].nic.mac1609_4 	RXTXLostPackets 	0
scalar IntersectionExampleScenario.node[18].nic.mac1609_4 	TotalLostPackets 	0
scalar IntersectionExampleScenario.node[18].nic.mac1609_4 	DroppedPacketsInMac 	0
scalar IntersectionExampleScenario.node[18].nic.mac1609_4 	TooLittleTime 	0
scalar IntersectionExampleScenario.node[18].nic.mac1609_4 	TimesIntoBackoff 	0
scalar IntersectionExampleScenario.node[18].nic.mac1609_4 	SlotsBackoff 	0
scalar IntersectionExampleScenario.node[18].nic.mac1609_4 	NumInternalContention 	0
scalar IntersectionExampleScenario.node[18].nic.mac1609_4 	totalBusyTime 	0
scalar IntersectionExampleScenario.node[18].veinsmobility 	startTime 	38.75
scalar IntersectionExampleScenario.node[18].veinsmobility 	totalTime 	54.5
scalar IntersectionExampleScenario.node[18].veinsmobility 	stopTime 	93.5
scalar IntersectionExampleScenario.node[18].veinsmobility 	minSpeed 	0
scalar IntersectionExampleScenario.node[18].veinsmobility 	maxSpeed 	16.89999961853
scalar IntersectionExampleScenario.node[18].veinsmobility 	totalDistance 	542.75674344451
scalar IntersectionExampleScenario.node[18].veinsmobility 	totalCO2Emission 	155.74634740168
scalar IntersectionExampleScenario.node[22].appl 	VehicleRemoved 	0
scalar IntersectionExampleScenario.node[22].appl 	ArrivedAtDest 	1
scalar IntersectionExampleScenario.node[22].appl 	IntersectionEnterTime 	57.25
scalar IntersectionExampleScenario.node[22].appl 	IntersectionExitTime 	82.094440449349
scalar IntersectionExampleScenario.node[22].appl 	NumberOfCollisions 	0
scalar IntersectionExampleScenario.node[22].nic.phy80211p 	busyTime 	0
scalar IntersectionExampleScenario.node[22].nic.mac1609_4 	ReceivedUnicastPackets 	0
scalar IntersectionExampleScenario.node[22].nic.mac1609_4 	ReceivedBroadcasts 	0
scalar IntersectionExampleScenario.node[22].nic.mac1609_4 	SentPackets 	0
scalar IntersectionExampleScenario.node[22].nic.mac1609_4 	SNIRLostPackets 	0
scalar IntersectionExampleScenario.node[22].nic.mac1609_4 	RXTXLostPackets 	0
scalar IntersectionExampleScenario.node[22].nic.mac1609_4 	TotalLostPackets 	0
scalar IntersectionExampleScenario.node[22].nic.mac1609_4 	DroppedPacketsInMac 	0
scalar IntersectionExampleScenario.node[22].nic.mac1609_4 	TooLittleTime 	0
scalar IntersectionExampleScenario.node[22].nic.mac1609_4 	TimesIntoBackoff 	0
scalar IntersectionExampleScenario.node[22].nic.mac1609_4 	SlotsBackoff 	0
scalar IntersectionExampleScenario.node[22].nic.mac1609_4 	NumInternalContention 	0
scalar IntersectionExampleScenario.node[22].nic.mac1609_4 	totalBusyTime 	0
scalar IntersectionExampleScenario.node[22].veinsmobility 	startTime 	57.25
scalar IntersectionExampleScenario.node[22].veinsmobility 	totalTime 	41.5
scalar IntersectionExampleScenario.node[22].veinsmobility 	stopTime 	99
scalar IntersectionExampleScenario.node[22].veinsmobility 	minSpeed 	5.6500000953674
scalar IntersectionExampleScenario.node[22].veinsmobility 	maxSpeed 	15.64999961853
scalar IntersectionExampleScenario.node[22].veinsmobility 	totalDistance 	545.41664982932
scalar IntersectionExampleScenario.node[22].veinsmobility 	totalCO2Emission 	138.08198089441
scalar IntersectionExampleScenario.node[25].appl 	VehicleRemoved 	0
scalar IntersectionExampleScenario.node[25].appl 	ArrivedAtDest 	1
scalar IntersectionExampleScenario.node[25].appl 	IntersectionEnterTime 	62.75
scalar IntersectionExampleScenario.node[25].appl 	IntersectionExitTime 	85.294293244748
scalar IntersectionExampleScenario.node[25].appl 	NumberOfCollisions 	0
scalar IntersectionExampleScenario.node[25].nic.phy80211p 	busyTime 	0
scalar IntersectionExampleScenario.node[25].nic.mac1609_4 	ReceivedUnicastPackets 	0
scalar IntersectionExampleScenario.node[25].nic.mac1609_4 	ReceivedBroadcasts 	0
scalar IntersectionExampleScenario.node[25].nic.mac1609_4 	SentPackets 	0
scalar IntersectionExampleScenario.node[25].nic.mac1609_4 	SNIRLostPackets 	0
scalar IntersectionExampleScenario.node[25].nic.mac1609_4 	RXTXLostPackets 	0
scalar IntersectionExampleScenario.node[25].nic.mac1609_4 	TotalLostPackets 	0
scalar IntersectionExampleScenario.node[25].nic.mac1609_4 	DroppedPacketsInMac 	0
scalar IntersectionExampleScenario.node[25].nic.mac1609_4 	TooLittleTime 	0
scalar IntersectionExampleScenario.node[25].nic.mac1609_4 	TimesIntoBackoff 	0
scalar IntersectionExampleScenario.node[25].nic.mac1609_4 	SlotsBackoff 	0
scalar IntersectionExampleScenario.node[25].nic.mac1609_4 	NumInternalContention 	0
scalar IntersectionExampleScenario.node[25].nic.mac1609_4 	totalBusyTime 	0
scalar IntersectionExampleScenario.node[25].veinsmobility 	startTime 	62.75
scalar IntersectionExampleScenario.node[25].veinsmobility 	totalTime 	38.25
scalar IntersectionExampleScenario.node[25].veinsmobility 	stopTime 	101.25
scalar IntersectionExampleScenario.node[25].veinsmobility 	minSpeed 	5.6500000953674
scalar IntersectionExampleScenario.node[25].veinsmobility 	maxSpeed 	15.995309829712
scalar IntersectionExampleScenario.node[25].veinsmobility 	totalDistance 	552.237159729
scalar IntersectionExampleScenario.node[25].veinsmobility 	totalCO2Emission 	120.18545368955
scalar IntersectionExampleScenario.node[21].appl 	VehicleRemoved 	0
scalar IntersectionExampleScenario.node[21].appl 	ArrivedAtDest 	1
scalar IntersectionExampleScenario.node[21].appl 	IntersectionEnterTime 	56
scalar IntersectionExampleScenario.node[21].appl 	IntersectionExitTime 	87.614329747652
scalar IntersectionExampleScenario.node[21].appl 	NumberOfCollisions 	0
scalar IntersectionExampleScenario.node[21].nic.phy80211p 	busyTime 	0
scalar IntersectionExampleScenario.node[21].nic.mac1609_4 	ReceivedUnicastPackets 	0
scalar IntersectionExampleScenario.node[21].nic.mac1609_4 	ReceivedBroadcasts 	0
scalar IntersectionExampleScenario.node[21].nic.mac1609_4 	SentPackets 	0
scalar IntersectionExampleScenario.node[21].nic.mac1609_4 	SNIRLostPackets 	0
scalar IntersectionExampleScenario.node[21].nic.mac1609_4 	RXTXLostPackets 	0
scalar IntersectionExampleScenario.node[21].nic.mac1609_4 	TotalLostPackets 	0
scalar IntersectionExampleScenario.node[21].nic.mac1609_4 	DroppedPacketsInMac 	0
scalar IntersectionExampleScenario.node[21].nic.mac1609_4 	TooLittleTime 	0
scalar IntersectionExampleScenario.node[21].nic.mac1609_4 	TimesIntoBackoff 	0
scalar IntersectionExampleScenario.node[21].nic.mac1609_4 	SlotsBackoff 	0
scalar IntersectionExampleScenario.node[21].nic.mac1609_4 	NumInternalContention 	0
scalar IntersectionExampleScenario.node[21].nic.mac1609_4 	totalBusyTime 	0
scalar IntersectionExampleScenario.node[21].veinsmobility 	startTime 	56
scalar IntersectionExampleScenario.node[21].veinsmobility 	totalTime 	48.5
scalar IntersectionExampleScenario.node[21].veinsmobility 	stopTime 	104.75
scalar IntersectionExampleScenario.node[21].veinsmobility 	minSpeed 	0
scalar IntersectionExampleScenario.node[21].veinsmobility 	maxSpeed 	15.25
scalar IntersectionExampleScenario.node[21].veinsmobility 	totalDistance 	544.46379758269
scalar IntersectionExampleScenario.node[21].veinsmobility 	totalCO2Emission 	137.99924564102
scalar IntersectionExampleScenario.node[24].appl 	VehicleRemoved 	0
scalar IntersectionExampleScenario.node[24].appl 	ArrivedAtDest 	1
scalar IntersectionExampleScenario.node[24].appl 	IntersectionEnterTime 	58
scalar IntersectionExampleScenario.node[24].appl 	IntersectionExitTime 	89.346657048241
scalar IntersectionExampleScenario.node[24].appl 	NumberOfCollisions 	0
scalar IntersectionExampleScenario.node[24].nic.phy80211p 	busyTime 	0
scalar IntersectionExampleScenario.node[24].nic.mac1609_4 	ReceivedUnicastPackets 	0
scalar IntersectionExampleScenario.node[24].nic.mac1609_4 	ReceivedBroadcasts 	0
scalar IntersectionExampleScenario.node[24].nic.mac1609_4 	SentPackets 	0
scalar IntersectionExampleScenario.node[24].nic.mac1609_4 	SNIRLostPackets 	0
scalar IntersectionExampleScenario.node[24].nic.mac1609_4 	RXTXLostPackets 	0
scalar IntersectionExampleScenario.node[24].nic.mac1609_4 	TotalLostPackets 	0
scalar IntersectionExampleScenario.node[24].nic.mac1609_4 	DroppedPacketsInMac 	0
scalar IntersectionExampleScenario.node[24].nic.mac1609_4 	TooLittleTime 	0
scalar IntersectionExampleScenario.node[24].nic.mac1609_4 	TimesIntoBackoff 	0
scalar IntersectionExampleScenario.node[24].nic.mac1609_4 	SlotsBackoff 	0
scalar IntersectionExampleScenario.node[24].nic.mac1609_4 	NumInternalContention 	0
scalar IntersectionExampleScenario.node[24].nic.mac1609_4 	totalBusyTime 	0
scalar IntersectionExampleScenario.node[24].veinsmobility 	startTime 	58
scalar IntersectionExampleScenario.node[24].veinsmobility 	totalTime 	46.75
scalar IntersectionExampleScenario.node[24].veinsmobility 	stopTime 	105
scalar IntersectionExampleScenario.node[24].veinsmobility 	minSpeed 	0
scalar IntersectionExampleScenario.node[24].veinsmobility 	maxSpeed 	16.125
scalar IntersectionExampleScenario.node[24].veinsmobility 	totalDistance 	571.75253295898
scalar IntersectionExampleScenario.node[24].veinsmobility 	totalCO2Emission 	146.32789634396
scalar IntersectionExampleScenario.node[27].appl 	VehicleRemoved 	0
scalar IntersectionExampleScenario.node[27].appl 	ArrivedAtDest 	1
scalar IntersectionExampleScenario.node[27].appl 	IntersectionEnterTime 	67.75
scalar IntersectionExampleScenario.node[27].appl 	IntersectionExitTime 	91.332850605599
scalar IntersectionExampleScenario.node[27].appl 	NumberOfCollisions 	0
scalar IntersectionExampleScenario.node[27].nic.phy80211p 	busyTime 	0
scalar IntersectionExampleScenario.node[27].nic.mac1609_4 	ReceivedUnicastPackets 	0
scalar IntersectionExampleScenario.node[27].nic.mac1609_4 	ReceivedBroadcasts 	0
scalar IntersectionExampleScenario.node[27].nic.mac1609_4 	SentPackets 	0
scalar IntersectionExampleScenario.node[27].nic.mac1609_4 	SNIRLostPackets 	0
scalar IntersectionExampleScenario.node[27].nic.mac1609_4 	RXTXLostPackets 	0
scalar IntersectionExampleScenario.node[27].nic.mac1609_4 	TotalLostPackets 	0
scalar IntersectionExampleScenario.node[27].nic.mac1609_4 	DroppedPacketsInMac 	0
scalar IntersectionExampleScenario.node[27].nic.mac1609_4 	TooLittleTime 	0
scalar IntersectionExampleScenario.node[27].nic.mac1609_4 	TimesIntoBackoff 	0
scalar IntersectionExampleScenario.node[27].nic.mac1609_4 	SlotsBackoff 	0
scalar IntersectionExampleScenario.node[27].nic.mac1609_4 	NumInternalContention 	0
scalar IntersectionExampleScenario.node[27].nic.mac1609_4 	totalBusyTime 	0
scalar IntersectionExampleScenario.node[27].veinsmobility 	startTime 	67.75
scalar IntersectionExampleScenario.node[27].veinsmobility 	totalTime 	40.25
scalar IntersectionExampleScenario.node[27].veinsmobility 	stopTime 	108.25
scalar IntersectionExampleScenario.node[27].veinsmobility 	minSpeed 	5.6500000953674
scalar IntersectionExampleScenario.node[27].veinsmobility 	maxSpeed 	15.375
scalar IntersectionExampleScenario.node[27].veinsmobility 	totalDistance 	551.98641173244
scalar IntersectionExampleScenario.node[27].veinsmobility 	totalCO2Emission 	120.88968681036
scalar IntersectionExampleScenario.node[30].appl 	VehicleRemoved 	0
scalar IntersectionExampleScenario.node[30].appl 	ArrivedAtDest 	1
scalar IntersectionExampleScenario.node[30].appl 	IntersectionEnterTime 	69
scalar IntersectionExampleScenario.node[30].appl 	IntersectionExitTime 	92.612471576984
scalar IntersectionExampleScenario.node[30].appl 	NumberOfCollisions 	0
scalar IntersectionExampleScenario.node[30].nic.phy80211p 	busyTime 	0
scalar IntersectionExampleScenario.node[30].nic.mac1609_4 	ReceivedUnicastPackets 	0
scalar IntersectionExampleScenario.node[30].nic.mac1609_4 	ReceivedBroadcasts 	0
scalar IntersectionExampleScenario.node[30].nic.mac1609_4 	SentPackets 	0
scalar IntersectionExampleScenario.node[30].nic.mac1609_4 	SNIRLostPackets 	0
scalar IntersectionExampleScenario.node[30].nic.mac1609_4 	RXTXLostPackets 	0
scalar IntersectionExampleScenario.node[30].nic.mac1609_4 	TotalLostPackets 	0
scalar IntersectionExampleScenario.node[30].nic.mac1609_4 	DroppedPacketsInMac 	0
scalar IntersectionExampleScenario.node[30].nic.mac1609_4 	TooLittleTime 	0
scalar IntersectionExampleScenario.node[30].nic.mac1609_4 	TimesIntoBackoff 	0
scalar IntersectionExampleScenario.node[30].nic.mac1609_4 	SlotsBackoff 	0
scalar IntersectionExampleScenario.node[30].nic.mac1609_4 	NumInternalContention 	0
scalar IntersectionExampleScenario.node[30].nic.mac1609_4 	totalBusyTime 	0
scalar IntersectionExampleScenario.node[30].veinsmobility 	startTime 	69
scalar IntersectionExampleScenario.node[30].veinsmobility 	totalTime 	40
scalar IntersectionExampleScenario.node[30].veinsmobility 	stopTime 	109.25
scalar IntersectionExampleScenario.node[30].veinsmobility 	minSpeed 	5.6500000953674
scalar IntersectionExampleScenario.node[30].veinsmobility 	maxSpeed 	16.89999961853
scalar IntersectionExampleScenario.node[30].veinsmobility 	totalDistance 	546.20237264055
scalar IntersectionExampleScenario.node[30].veinsmobility 	totalCO2Emission 	152.72640258698
scalar IntersectionExampleScenario.node[29].appl 	VehicleRemoved 	0
scalar IntersectionExampleScenario.node[29].appl 	ArrivedAtDest 	1
scalar IntersectionExampleScenario.node[29].appl 	IntersectionEnterTime 	69
scalar IntersectionExampleScenario.node[29].appl 	IntersectionExitTime 	93.510579787253
scalar IntersectionExampleScenario.node[29].appl 	NumberOfCollisions 	0
scalar IntersectionExampleScenario.node[29].nic.phy80211p 	busyTime 	0
scalar IntersectionExampleScenario.node[29].nic.mac1609_4 	ReceivedUnicastPackets 	0
scalar IntersectionExampleScenario.node[29].nic.mac1609_4 	ReceivedBroadcasts 	0
scalar IntersectionExampleScenario.node[29].nic.mac1609_4 	SentPackets 	0
scalar IntersectionExampleScenario.node[29].nic.mac1609_4 	SNIRLostPackets 	0
scalar IntersectionExampleScenario.node[29].nic.mac1609_4 	RXTXLostPackets 	0
scalar IntersectionExampleScenario.node[29].nic.mac1609_4 	TotalLostPackets 	0
scalar IntersectionExampleScenario.node[29].nic.mac1609_4 	DroppedPacketsInMac 	0
scalar IntersectionExampleScenario.node[29].nic.mac1609_4 	TooLittleTime 	0
scalar IntersectionExampleScenario.node[29].nic.mac1609_4 	TimesIntoBackoff 	0
scalar IntersectionExampleScenario.node[29].nic.mac1609_4 	SlotsBackoff 	0
scalar IntersectionExampleScenario.node[29].nic.mac1609_4 	NumInternalContention 	0
scalar IntersectionExampleScenario.node[29].nic.mac1609_4 	totalBusyTime 	0
scalar IntersectionExampleScenario.node[29].veinsmobility 	startTime 	69
scalar IntersectionExampleScenario.node[29].veinsmobility 	totalTime 	41.25
scalar IntersectionExampleScenario.node[29].veinsmobility 	stopTime 	110.5
scalar IntersectionExampleScenario.node[29].veinsmobility 	minSpeed 	5.6500000953674
scalar IntersectionExampleScenario.node[29].veinsmobility 	maxSpeed 	16.457736968994
scalar IntersectionExampleScenario.node[29].veinsmobility 	totalDistance 	572.94600970292
scalar IntersectionExampleScenario.node[29].veinsmobility 	totalCO2Emission 	139.41707425871
scalar IntersectionExampleScenario.node[32].appl 	VehicleRemoved 	0
scalar IntersectionExampleScenario.node[32].appl 	ArrivedAtDest 	1
scalar IntersectionExampleScenario.node[32].appl 	IntersectionEnterTime 	71
scalar IntersectionExampleScenario.node[32].appl 	IntersectionExitTime 	95.820184949989
scalar IntersectionExampleScenario.node[32].appl 	NumberOfCollisions 	0
scalar IntersectionExampleScenario.node[32].nic.phy80211p 	busyTime 	0
scalar IntersectionExampleScenario.node[32].nic.mac1609_4 	ReceivedUnicastPackets 	0
scalar IntersectionExampleScenario.node[32].nic.mac1609_4 	ReceivedBroadcasts 	0
scalar IntersectionExampleScenario.node[32].nic.mac1609_4 	SentPackets 	0
scalar IntersectionExampleScenario.node[32].nic.mac1609_4 	SNIRLostPackets 	0
scalar IntersectionExampleScenario.node[32].nic.mac1609_4 	RXTXLostPackets 	0
scalar IntersectionExampleScenario.node[32].nic.mac1609_4 	TotalLostPackets 	0
scalar IntersectionExampleScenario.node[32].nic.mac1609_4 	DroppedPacketsInMac 	0
scalar IntersectionExampleScenario.node[32].nic.mac1609_4 	TooLittleTime 	0
scalar IntersectionExampleScenario.node[32].nic.mac1609_4 	TimesIntoBackoff 	0
scalar IntersectionExampleScenario.node[32].nic.mac1609_4 	SlotsBackoff 	0
scalar IntersectionExampleScenario.node[32].nic.mac1609_4 	NumInternalContention 	0
scalar IntersectionExampleScenario.node[32].nic.mac1609_4 	totalBusyTime 	0
scalar IntersectionExampleScenario.node[32].veinsmobility 	startTime 	71
scalar IntersectionExampleScenario.node[32].veinsmobility 	totalTime 	40.5
scalar IntersectionExampleScenario.node[32].veinsmobility 	stopTime 	111.75
scalar IntersectionExampleScenario.node[32].veinsmobility 	minSpeed 	5.6500000953674
scalar IntersectionExampleScenario.node[32].veinsmobility 	maxSpeed 	16.5
scalar IntersectionExampleScenario.node[32].veinsmobility 	totalDistance 	572.01035172407
scalar IntersectionExampleScenario.node[32].veinsmobility 	totalCO2Emission 	140.32121222932
scalar IntersectionExampleScenario.node[33].appl 	VehicleRemoved 	0
scalar IntersectionExampleScenario.node[33].appl 	ArrivedAtDest 	1
scalar IntersectionExampleScenario.node[33].appl 	IntersectionEnterTime 	71.5
scalar IntersectionExampleScenario.node[33].appl 	IntersectionExitTime 	95.817235507624
scalar IntersectionExampleScenario.node[33].appl 	NumberOfCollisions 	0
scalar IntersectionExampleScenario.node[33].nic.phy80211p 	busyTime 	0
scalar IntersectionExampleScenario.node[33].nic.mac1609_4 	ReceivedUnicastPackets 	0
scalar IntersectionExampleScenario.node[33].nic.mac1609_4 	ReceivedBroadcasts 	0
scalar IntersectionExampleScenario.node[33].nic.mac1609_4 	SentPackets 	0
scalar IntersectionExampleScenario.node[33].nic.mac1609_4 	SNIRLostPackets 	0
scalar IntersectionExampleScenario.node[33].nic.mac1609_4 	RXTXLostPackets 	0
scalar IntersectionExampleScenario.node[33].nic.mac1609_4 	TotalLostPackets 	0
scalar IntersectionExampleScenario.node[33].nic.mac1609_4 	DroppedPacketsInMac 	0
scalar IntersectionExampleScenario.node[33].nic.mac1609_4 	TooLittleTime 	0
scalar IntersectionExampleScenario.node[33].nic.mac1609_4 	TimesIntoBackoff 	0
scalar IntersectionExampleScenario.node[33].nic.mac1609_4 	SlotsBackoff 	0
scalar IntersectionExampleScenario.node[33].nic.mac1609_4 	NumInternalContention 	0
scalar IntersectionExampleScenario.node[33].nic.mac1609_4 	totalBusyTime 	0
scalar IntersectionExampleScenario.node[33].veinsmobility 	startTime 	71.5
scalar IntersectionExampleScenario.node[33].veinsmobility 	totalTime 	40.75
scalar IntersectionExampleScenario.node[33].veinsmobility 	stopTime 	112.5
scalar IntersectionExampleScenario.node[33].veinsmobility 	minSpeed 	5.6500000953674
scalar IntersectionExampleScenario.node[33].veinsmobility 	maxSpeed 	15.792058944702
scalar IntersectionExampleScenario.node[33].veinsmobility 	totalDistance 	561.64970859035
scalar IntersectionExampleScenario.node[33].veinsmobility 	totalCO2Emission 	130.53741325268
scalar IntersectionExampleScenario.node[23].appl 	VehicleRemoved 	0
scalar IntersectionExampleScenario.node[23].appl 	ArrivedAtDest 	1
scalar IntersectionExampleScenario.node[23].appl 	IntersectionEnterTime 	58
scalar IntersectionExampleScenario.node[23].appl 	IntersectionExitTime 	100.36137600668
scalar IntersectionExampleScenario.node[23].appl 	NumberOfCollisions 	0
scalar IntersectionExampleScenario.node[23].nic.phy80211p 	busyTime 	0
scalar IntersectionExampleScenario.node[23].nic.mac1609_4 	ReceivedUnicastPackets 	0
scalar IntersectionExampleScenario.node[23].nic.mac1609_4 	ReceivedBroadcasts 	0
scalar IntersectionExampleScenario.node[23].nic.mac1609_4 	SentPackets 	0
scalar IntersectionExampleScenario.node[23].nic.mac1609_4 	SNIRLostPackets 	0
scalar IntersectionExampleScenario.node[23].nic.mac1609_4 	RXTXLostPackets 	0
scalar IntersectionExampleScenario.node[23].nic.mac1609_4 	TotalLostPackets 	0
scalar IntersectionExampleScenario.node[23].nic.mac1609_4 	DroppedPacketsInMac 	0
scalar IntersectionExampleScenario.node[23].nic.mac1609_4 	TooLittleTime 	0
scalar IntersectionExampleScenario.node[23].nic.mac1609_4 	TimesIntoBackoff 	0
scalar IntersectionExampleScenario.node[23].nic.mac1609_4 	SlotsBackoff 	0
scalar IntersectionExampleScenario.node[23].nic.mac1609_4 	NumInternalContention 	0
scalar IntersectionExampleScenario.node[23].nic.mac1609_4 	totalBusyTime 	0
scalar IntersectionExampleScenario.node[23].veinsmobility 	startTime 	58
scalar IntersectionExampleScenario.node[23].veinsmobility 	totalTime 	57.75
scalar IntersectionExampleScenario.node[23].veinsmobility 	stopTime 	116
scalar IntersectionExampleScenario.node[23].veinsmobility 	minSpeed 	0
scalar IntersectionExampleScenario.node[23].veinsmobility 	maxSpeed 	16.27499961853
scalar IntersectionExampleScenario.node[23].veinsmobility 	totalDistance 	551.43734741211
scalar IntersectionExampleScenario.node[23].veinsmobility 	totalCO2Emission 	154.08964344961
scalar IntersectionExampleScenario.node[26].appl 	VehicleRemoved 	0
scalar IntersectionExampleScenario.node[26].appl 	ArrivedAtDest 	1
scalar IntersectionExampleScenario.node[26].appl 	IntersectionEnterTime 	67.5
scalar IntersectionExampleScenario.node[26].appl 	IntersectionExitTime 	109.54672797615
scalar IntersectionExampleScenario.node[26].appl 	NumberOfCollisions 	0
scalar IntersectionExampleScenario.node[26].nic.phy80211p 	busyTime 	0
scalar IntersectionExampleScenario.node[26].nic.mac1609_4 	ReceivedUnicastPackets 	0
scalar IntersectionExampleScenario.node[26].nic.mac1609_4 	ReceivedBroadcasts 	0
scalar IntersectionExampleScenario.node[26].nic.mac1609_4 	SentPackets 	0
scalar IntersectionExampleScenario.node[26].nic.mac1609_4 	SNIRLostPackets 	0
scalar IntersectionExampleScenario.node[26].nic.mac1609_4 	RXTXLostPackets 	0
scalar IntersectionExampleScenario.node[26].nic.mac1609_4 	TotalLostPackets 	0
scalar IntersectionExampleScenario.node[26].nic.mac1609_4 	DroppedPacketsInMac 	0
scalar IntersectionExampleScenario.node[26].nic.mac1609_4 	TooLittleTime 	0
scalar IntersectionExampleScenario.node[26].nic.mac1609_4 	TimesIntoBackoff 	0
scalar IntersectionExampleScenario.node[26].nic.mac1609_4 	SlotsBackoff 	0
scalar IntersectionExampleScenario.node[26].nic.mac1609_4 	NumInternalContention 	0
scalar IntersectionExampleScenario.node[26].nic.mac1609_4 	totalBusyTime 	0
scalar IntersectionExampleScenario.node[26].veinsmobility 	startTime 	67.5
scalar IntersectionExampleScenario.node[26].veinsmobility 	totalTime 	58.75
scalar IntersectionExampleScenario.node[26].veinsmobility 	stopTime 	126.5
scalar IntersectionExampleScenario.node[26].veinsmobility 	minSpeed 	0
scalar IntersectionExampleScenario.node[26].veinsmobility 	maxSpeed 	15.64999961853
scalar IntersectionExampleScenario.node[26].veinsmobility 	totalDistance 	543.89901639373
scalar IntersectionExampleScenario.node[26].veinsmobility 	totalCO2Emission 	150.20835314526
scalar IntersectionExampleScenario.node[28].appl 	VehicleRemoved 	0
scalar IntersectionExampleScenario.node[28].appl 	ArrivedAtDest 	1
scalar IntersectionExampleScenario.node[28].appl 	IntersectionEnterTime 	68.5
scalar IntersectionExampleScenario.node[28].appl 	IntersectionExitTime 	112.12033426747
scalar IntersectionExampleScenario.node[28].appl 	NumberOfCollisions 	0
scalar IntersectionExampleScenario.node[28].nic.phy80211p 	busyTime 	0
scalar IntersectionExampleScenario.node[28].nic.mac1609_4 	ReceivedUnicastPackets 	0
scalar IntersectionExampleScenario.node[28].nic.mac1609_4 	ReceivedBroadcasts 	0
scalar IntersectionExampleScenario.node[28].nic.mac1609_4 	SentPackets 	0
scalar IntersectionExampleScenario.node[28].nic.mac1609_4 	SNIRLostPackets 	0
scalar IntersectionExampleScenario.node[28].nic.mac1609_4 	RXTXLostPackets 	0
scalar IntersectionExampleScenario.node[28].nic.mac1609_4 	TotalLostPackets 	0
scalar IntersectionExampleScenario.node[28].nic.mac1609_4 	DroppedPacketsInMac 	0
scalar IntersectionExampleScenario.node[28].nic.mac1609_4 	TooLittleTime 	0
scalar IntersectionExampleScenario.node[28].nic.mac1609_4 	TimesIntoBackoff 	0
scalar IntersectionExampleScenario.node[28].nic.mac1609_4 	SlotsBackoff 	0
scalar IntersectionExampleScenario.node[28].nic.mac1609_4 	NumInternalContention 	0
scalar IntersectionExampleScenario.node[28].nic.mac1609_4 	totalBusyTime 	0
scalar IntersectionExampleScenario.node[28].veinsmobility 	startTime 	68.5
scalar IntersectionExampleScenario.node[28].veinsmobility 	totalTime 	60.25
scalar IntersectionExampleScenario.node[28].veinsmobility 	stopTime 	129
scalar IntersectionExampleScenario.node[28].veinsmobility 	minSpeed 	0
scalar IntersectionExampleScenario.node[28].veinsmobility 	maxSpeed 	15.64999961853
scalar IntersectionExampleScenario.node[28].veinsmobility 	totalDistance 	567.55625939409
scalar IntersectionExampleScenario.node[28].veinsmobility 	totalCO2Emission 	154.83792264442
scalar IntersectionExampleScenario.node[31].appl 	VehicleRemoved 	0
scalar IntersectionExampleScenario.node[31].appl 	ArrivedAtDest 	1
scalar IntersectionExampleScenario.node[31].appl 	IntersectionEnterTime 	70.25
scalar IntersectionExampleScenario.node[31].appl 	IntersectionExitTime 	114.7900772334
scalar IntersectionExampleScenario.node[31].appl 	NumberOfCollisions 	0
scalar IntersectionExampleScenario.node[31].nic.phy80211p 	busyTime 	0
scalar IntersectionExampleScenario.node[31].nic.mac1609_4 	ReceivedUnicastPackets 	0
scalar IntersectionExampleScenario.node[31].nic.mac1609_4 	ReceivedBroadcasts 	0
scalar IntersectionExampleScenario.node[31].nic.mac1609_4 	SentPackets 	0
scalar IntersectionExampleScenario.node[31].nic.mac1609_4 	SNIRLostPackets 	0
scalar IntersectionExampleScenario.node[31].nic.mac1609_4 	RXTXLostPackets 	0
scalar IntersectionExampleScenario.node[31].nic.mac1609_4 	TotalLostPackets 	0
scalar IntersectionExampleScenario.node[31].nic.mac1609_4 	DroppedPacketsInMac 	0
scalar IntersectionExampleScenario.node[31].nic.mac1609_4 	TooLittleTime 	0
scalar IntersectionExampleScenario.node[31].nic.mac1609_4 	TimesIntoBackoff 	0
scalar IntersectionExampleScenario.node[31].nic.mac1609_4 	SlotsBackoff 	0
scalar IntersectionExampleScenario.node[31].nic.mac1609_4 	NumInternalContention 	0
scalar IntersectionExampleScenario.node[31].nic.mac1609_4 	totalBusyTime 	0
scalar IntersectionExampleScenario.node[31].veinsmobility 	startTime 	70.25
scalar IntersectionExampleScenario.node[31].veinsmobility 	totalTime 	61.25
scalar IntersectionExampleScenario.node[31].veinsmobility 	stopTime 	131.75
scalar IntersectionExampleScenario.node[31].veinsmobility 	minSpeed 	0
scalar IntersectionExampleScenario.node[31].veinsmobility 	maxSpeed 	15.64999961853
scalar IntersectionExampleScenario.node[31].veinsmobility 	totalDistance 	576.26428998359
scalar IntersectionExampleScenario.node[31].veinsmobility 	totalCO2Emission 	156.06218580694
scalar IntersectionExampleScenario.node[35].appl 	VehicleRemoved 	0
scalar IntersectionExampleScenario.node[35].appl 	ArrivedAtDest 	1
scalar IntersectionExampleScenario.node[35].appl 	IntersectionEnterTime 	77.5
scalar IntersectionExampleScenario.node[35].appl 	IntersectionExitTime 	117.02248966423
scalar IntersectionExampleScenario.node[35].appl 	NumberOfCollisions 	0
scalar IntersectionExampleScenario.node[35].nic.phy80211p 	busyTime 	0
scalar IntersectionExampleScenario.node[35].nic.mac1609_4 	ReceivedUnicastPackets 	0
scalar IntersectionExampleScenario.node[35].nic.mac1609_4 	ReceivedBroadcasts 	0
scalar IntersectionExampleScenario.node[35].nic.mac1609_4 	SentPackets 	0
scalar IntersectionExampleScenario.node[35].nic.mac1609_4 	SNIRLostPackets 	0
scalar IntersectionExampleScenario.node[35].nic.mac1609_4 	RXTXLostPackets 	0
scalar IntersectionExampleScenario.node[35].nic.mac1609_4 	TotalLostPackets 	0
scalar IntersectionExampleScenario.node[35].nic.mac1609_4 	DroppedPacketsInMac 	0
scalar IntersectionExampleScenario.node[35].nic.mac1609_4 	TooLittleTime 	0
scalar IntersectionExampleScenario.node[35].nic.mac1609_4 	TimesIntoBackoff 	0
scalar IntersectionExampleScenario.node[35].nic.mac1609_4 	SlotsBackoff 	0
scalar IntersectionExampleScenario.node[35].nic.mac1609_4 	NumInternalContention 	0
scalar IntersectionExampleScenario.node[35].nic.mac1609_4 	totalBusyTime 	0
scalar IntersectionExampleScenario.node[35].veinsmobility 	startTime 	77.5
scalar IntersectionExampleScenario.node[35].veinsmobility 	totalTime 	56
scalar IntersectionExampleScenario.node[35].veinsmobility 	stopTime 	133.75
scalar IntersectionExampleScenario.node[35].veinsmobility 	minSpeed 	0
scalar IntersectionExampleScenario.node[35].veinsmobility 	maxSpeed 	15.64999961853
scalar IntersectionExampleScenario.node[35].veinsmobility 	totalDistance 	543.67631047367
scalar IntersectionExampleScenario.node[35].veinsmobility 	totalCO2Emission 	146.28986880581
scalar IntersectionExampleScenario.node[34].appl 	VehicleRemoved 	0
scalar IntersectionExampleScenario.node[34].appl 	ArrivedAtDest 	1
scalar IntersectionExampleScenario.node[34].appl 	IntersectionEnterTime 	76.25
scalar IntersectionExampleScenario.node[34].appl 	IntersectionExitTime 	119.53177264173
scalar IntersectionExampleScenario.node[34].appl 	NumberOfCollisions 	0
scalar IntersectionExampleScenario.node[34].nic.phy80211p 	busyTime 	0
scalar IntersectionExampleScenario.node[34].nic.mac1609_4 	ReceivedUnicastPackets 	0
scalar IntersectionExampleScenario.node[34].nic.mac1609_4 	ReceivedBroadcasts 	0
scalar IntersectionExampleScenario.node[34].nic.mac1609_4 	SentPackets 	0
scalar IntersectionExampleScenario.node[34].nic.mac1609_4 	SNIRLostPackets 	0
scalar IntersectionExampleScenario.node[34].nic.mac1609_4 	RXTXLostPackets 	0
scalar IntersectionExampleScenario.node[34].nic.mac1609_4 	TotalLostPackets 	0
scalar IntersectionExampleScenario.node[34].nic.mac1609_4 	DroppedPacketsInMac 	0
scalar IntersectionExampleScenario.node[34].nic.mac1609_4 	TooLittleTime 	0
scalar IntersectionExampleScenario.node[34].nic.mac1609_4 	TimesIntoBackoff 	0
scalar IntersectionExampleScenario.node[34].nic.mac1609_4 	SlotsBackoff 	0
scalar IntersectionExampleScenario.node[34].nic.mac1609_4 	NumInternalContention 	0
scalar IntersectionExampleScenario.node[34].nic.mac1609_4 	totalBusyTime 	0
scalar IntersectionExampleScenario.node[34].veinsmobility 	startTime 	76.25
scalar IntersectionExampleScenario.node[34].veinsmobility 	totalTime 	58.5
scalar IntersectionExampleScenario.node[34].veinsmobility 	stopTime 	135
scalar IntersectionExampleScenario.node[34].veinsmobility 	minSpeed 	0
scalar IntersectionExampleScenario.node[34].veinsmobility 	maxSpeed 	16.556270599365
scalar IntersectionExampleScenario.node[34].veinsmobility 	totalDistance 	565.04305267334
scalar IntersectionExampleScenario.node[34].veinsmobility 	totalCO2Emission 	163.77919499914
scalar IntersectionExampleScenario.node[40].appl 	VehicleRemoved 	0
scalar IntersectionExampleScenario.node[40].appl 	ArrivedAtDest 	1
scalar IntersectionExampleScenario.node[40].appl 	IntersectionEnterTime 	86.75
scalar IntersectionExampleScenario.node[40].appl 	IntersectionExitTime 	118.531949672
scalar IntersectionExampleScenario.node[40].appl 	NumberOfCollisions 	0
scalar IntersectionExampleScenario.node[40].nic.phy80211p 	busyTime 	0
scalar IntersectionExampleScenario.node[40].nic.mac1609_4 	ReceivedUnicastPackets 	0
scalar IntersectionExampleScenario.node[40].nic.mac1609_4 	ReceivedBroadcasts 	0
scalar IntersectionExampleScenario.node[40].nic.mac1609_4 	SentPackets 	0
scalar IntersectionExampleScenario.node[40].nic.mac1609_4 	SNIRLostPackets 	0
scalar IntersectionExampleScenario.node[40].nic.mac1609_4 	RXTXLostPackets 	0
scalar IntersectionExampleScenario.node[40].nic.mac1609_4 	TotalLostPackets 	0
scalar IntersectionExampleScenario.node[40].nic.mac1609_4 	DroppedPacketsInMac 	0
scalar IntersectionExampleScenario.node[40].nic.mac1609_4 	TooLittleTime 	0
scalar IntersectionExampleScenario.node[40].nic.mac1609_4 	TimesIntoBackoff 	0
scalar IntersectionExampleScenario.node[40].nic.mac1609_4 	SlotsBackoff 	0
scalar IntersectionExampleScenario.node[40].nic.mac1609_4 	NumInternalContention 	0
scalar IntersectionExampleScenario.node[40].nic.mac1609_4 	totalBusyTime 	0
scalar IntersectionExampleScenario.node[40].veinsmobility 	startTime 	86.75
scalar IntersectionExampleScenario.node[40].veinsmobility 	totalTime 	48.5
scalar IntersectionExampleScenario.node[40].veinsmobility 	stopTime 	135.5
scalar IntersectionExampleScenario.node[40].veinsmobility 	minSpeed 	0
scalar IntersectionExampleScenario.node[40].veinsmobility 	maxSpeed 	15.64999961853
scalar IntersectionExampleScenario.node[40].veinsmobility 	totalDistance 	543.89903928191
scalar IntersectionExampleScenario.node[40].veinsmobility 	totalCO2Emission 	140.23510314526
scalar IntersectionExampleScenario.node[41].appl 	VehicleRemoved 	0
scalar IntersectionExampleScenario.node[41].appl 	ArrivedAtDest 	1
scalar IntersectionExampleScenario.node[41].appl 	IntersectionEnterTime 	89.25
scalar IntersectionExampleScenario.node[41].appl 	IntersectionExitTime 	120.57198166961
scalar IntersectionExampleScenario.node[41].appl 	NumberOfCollisions 	0
scalar IntersectionExampleScenario.node[41].nic.phy80211p 	busyTime 	0
scalar IntersectionExampleScenario.node[41].nic.mac1609_4 	ReceivedUnicastPackets 	0
scalar IntersectionExampleScenario.node[41].nic.mac1609_4 	ReceivedBroadcasts 	0
scalar IntersectionExampleScenario.node[41].nic.mac1609_4 	SentPackets 	0
scalar IntersectionExampleScenario.node[41].nic.mac1609_4 	SNIRLostPackets 	0
scalar IntersectionExampleScenario.node[41].nic.mac1609_4 	RXTXLostPackets 	0
scalar IntersectionExampleScenario.node[41].nic.mac1609_4 	TotalLostPackets 	0
scalar IntersectionExampleScenario.node[41].nic.mac1609_4 	DroppedPacketsInMac 	0
scalar IntersectionExampleScenario.node[41].nic.mac1609_4 	TooLittleTime 	0
scalar IntersectionExampleScenario.node[41].nic.mac1609_4 	TimesIntoBackoff 	0
scalar IntersectionExampleScenario.node[41].nic.mac1609_4 	SlotsBackoff 	0
scalar IntersectionExampleScenario.node[41].nic.mac1609_4 	NumInternalContention 	0
scalar IntersectionExampleScenario.node[41].nic.mac1609_4 	totalBusyTime 	0
scalar IntersectionExampleScenario.node[41].veinsmobility 	startTime 	89.25
scalar IntersectionExampleScenario.node[41].veinsmobility 	totalTime 	47.5
scalar IntersectionExampleScenario.node[41].veinsmobility 	stopTime 	137
scalar IntersectionExampleScenario.node[41].veinsmobility 	minSpeed 	0
scalar IntersectionExampleScenario.node[41].veinsmobility 	maxSpeed 	15.5
scalar IntersectionExampleScenario.node[41].veinsmobility 	totalDistance 	569.8332824707
scalar IntersectionExampleScenario.node[41].veinsmobility 	totalCO2Emission 	137.80122505566
scalar IntersectionExampleScenario.node[38].appl 	VehicleRemoved 	0
scalar IntersectionExampleScenario.node[38].appl 	ArrivedAtDest 	1
scalar IntersectionExampleScenario.node[38].appl 	IntersectionEnterTime 	85
scalar IntersectionExampleScenario.node[38].appl 	IntersectionExitTime 	121.54735232363
scalar IntersectionExampleScenario.node[38].appl 	NumberOfCollisions 	0
scalar IntersectionExampleScenario.node[38].nic.phy80211p 	busyTime 	0
scalar IntersectionExampleScenario.node[38].nic.mac1609_4 	ReceivedUnicastPackets 	0
scalar IntersectionExampleScenario.node[38].nic.mac1609_4 	ReceivedBroadcasts 	0
scalar IntersectionExampleScenario.node[38].nic.mac1609_4 	SentPackets 	0
scalar IntersectionExampleScenario.node[38].nic.mac1609_4 	SNIRLostPackets 	0
scalar IntersectionExampleScenario.node[38].nic.mac1609_4 	RXTXLostPackets 	0
scalar IntersectionExampleScenario.node[38].nic.mac1609_4 	TotalLostPackets 	0
scalar IntersectionExampleScenario.node[38].nic.mac1609_4 	DroppedPacketsInMac 	0
scalar IntersectionExampleScenario.node[38].nic.mac1609_4 	TooLittleTime 	0
scalar IntersectionExampleScenario.node[38].nic.mac1609_4 	TimesIntoBackoff 	0
scalar IntersectionExampleScenario.node[38].nic.mac1609_4 	SlotsBackoff 	0
scalar IntersectionExampleScenario.node[38].nic.mac1609_4 	NumInternalContention 	0
scalar IntersectionExampleScenario.node[38].nic.mac1609_4 	totalBusyTime 	0
scalar IntersectionExampleScenario.node[38].veinsmobility 	startTime 	85
scalar IntersectionExampleScenario.node[38].veinsmobility 	totalTime 	52
scalar IntersectionExampleScenario.node[38].veinsmobility 	stopTime 	137.25
scalar IntersectionExampleScenario.node[38].veinsmobility 	minSpeed 	0
scalar IntersectionExampleScenario.node[38].veinsmobility 	maxSpeed 	16.471532821655
scalar IntersectionExampleScenario.node[38].veinsmobility 	totalDistance 	554.33042144775
scalar IntersectionExampleScenario.node[38].veinsmobility 	totalCO2Emission 	146.84388284829
scalar IntersectionExampleScenario.node[39].appl 	VehicleRemoved 	0
scalar IntersectionExampleScenario.node[39].appl 	ArrivedAtDest 	1
scalar IntersectionExampleScenario.node[39].appl 	IntersectionEnterTime 	86.25
scalar IntersectionExampleScenario.node[39].appl 	IntersectionExitTime 	123.62267544292
scalar IntersectionExampleScenario.node[39].appl 	NumberOfCollisions 	0
scalar IntersectionExampleScenario.node[39].nic.phy80211p 	busyTime 	0
scalar IntersectionExampleScenario.node[39].nic.mac1609_4 	ReceivedUnicastPackets 	0
scalar IntersectionExampleScenario.node[39].nic.mac1609_4 	ReceivedBroadcasts 	0
scalar IntersectionExampleScenario.node[39].nic.mac1609_4 	SentPackets 	0
scalar IntersectionExampleScenario.node[39].nic.mac1609_4 	SNIRLostPackets 	0
scalar IntersectionExampleScenario.node[39].nic.mac1609_4 	RXTXLostPackets 	0
scalar IntersectionExampleScenario.node[39].nic.mac1609_4 	TotalLostPackets 	0
scalar IntersectionExampleScenario.node[39].nic.mac1609_4 	DroppedPacketsInMac 	0
scalar IntersectionExampleScenario.node[39].nic.mac1609_4 	TooLittleTime 	0
scalar IntersectionExampleScenario.node[39].nic.mac1609_4 	TimesIntoBackoff 	0
scalar IntersectionExampleScenario.node[39].nic.mac1609_4 	SlotsBackoff 	0
[...]
scalar IntersectionExampleScenario.node[793].veinsmobility 	totalCO2Emission 	54.493881369994
scalar IntersectionExampleScenario.node[794].appl 	VehicleRemoved 	0
scalar IntersectionExampleScenario.node[794].appl 	ArrivedAtDest 	0
scalar IntersectionExampleScenario.node[794].appl 	IntersectionEnterTime 	1780.25
scalar IntersectionExampleScenario.node[794].appl 	IntersectionExitTime 	-1
scalar IntersectionExampleScenario.node[794].appl 	NumberOfCollisions 	0
scalar IntersectionExampleScenario.node[794].nic.phy80211p 	busyTime 	0
scalar IntersectionExampleScenario.node[794].nic.mac1609_4 	ReceivedUnicastPackets 	0
scalar IntersectionExampleScenario.node[794].nic.mac1609_4 	ReceivedBroadcasts 	0
scalar IntersectionExampleScenario.node[794].nic.mac1609_4 	SentPackets 	0
scalar IntersectionExampleScenario.node[794].nic.mac1609_4 	SNIRLostPackets 	0
scalar IntersectionExampleScenario.node[794].nic.mac1609_4 	RXTXLostPackets 	0
scalar IntersectionExampleScenario.node[794].nic.mac1609_4 	TotalLostPackets 	0
scalar IntersectionExampleScenario.node[794].nic.mac1609_4 	DroppedPacketsInMac 	0
scalar IntersectionExampleScenario.node[794].nic.mac1609_4 	TooLittleTime 	0
scalar IntersectionExampleScenario.node[794].nic.mac1609_4 	TimesIntoBackoff 	0
scalar IntersectionExampleScenario.node[794].nic.mac1609_4 	SlotsBackoff 	0
scalar IntersectionExampleScenario.node[794].nic.mac1609_4 	NumInternalContention 	0
scalar IntersectionExampleScenario.node[794].nic.mac1609_4 	totalBusyTime 	0
scalar IntersectionExampleScenario.node[794].veinsmobility 	startTime 	1780.25
scalar IntersectionExampleScenario.node[794].veinsmobility 	totalTime 	19.75
scalar IntersectionExampleScenario.node[794].veinsmobility 	stopTime 	1800
scalar IntersectionExampleScenario.node[794].veinsmobility 	minSpeed 	5.6500000953674
scalar IntersectionExampleScenario.node[794].veinsmobility 	maxSpeed 	15.64999961853
scalar IntersectionExampleScenario.node[794].veinsmobility 	totalDistance 	250.86547088623
scalar IntersectionExampleScenario.node[794].veinsmobility 	totalCO2Emission 	65.109319156129
scalar IntersectionExampleScenario.node[795].appl 	VehicleRemoved 	0
scalar IntersectionExampleScenario.node[795].appl 	ArrivedAtDest 	0
scalar IntersectionExampleScenario.node[795].appl 	IntersectionEnterTime 	1780.5
scalar IntersectionExampleScenario.node[795].appl 	IntersectionExitTime 	-1
scalar IntersectionExampleScenario.node[795].appl 	NumberOfCollisions 	0
scalar IntersectionExampleScenario.node[795].nic.phy80211p 	busyTime 	0
scalar IntersectionExampleScenario.node[795].nic.mac1609_4 	ReceivedUnicastPackets 	0
scalar IntersectionExampleScenario.node[795].nic.mac1609_4 	ReceivedBroadcasts 	0
scalar IntersectionExampleScenario.node[795].nic.mac1609_4 	SentPackets 	0
scalar IntersectionExampleScenario.node[795].nic.mac1609_4 	SNIRLostPackets 	0
scalar IntersectionExampleScenario.node[795].nic.mac1609_4 	RXTXLostPackets 	0
scalar IntersectionExampleScenario.node[795].nic.mac1609_4 	TotalLostPackets 	0
scalar IntersectionExampleScenario.node[795].nic.mac1609_4 	DroppedPacketsInMac 	0
scalar IntersectionExampleScenario.node[795].nic.mac1609_4 	TooLittleTime 	0
scalar IntersectionExampleScenario.node[795].nic.mac1609_4 	TimesIntoBackoff 	0
scalar IntersectionExampleScenario.node[795].nic.mac1609_4 	SlotsBackoff 	0
scalar IntersectionExampleScenario.node[795].nic.mac1609_4 	NumInternalContention 	0
scalar IntersectionExampleScenario.node[795].nic.mac1609_4 	totalBusyTime 	0
scalar IntersectionExampleScenario.node[795].veinsmobility 	startTime 	1780.5
scalar IntersectionExampleScenario.node[795].veinsmobility 	totalTime 	19.5
scalar IntersectionExampleScenario.node[795].veinsmobility 	stopTime 	1800
scalar IntersectionExampleScenario.node[795].veinsmobility 	minSpeed 	5.6500000953674
scalar IntersectionExampleScenario.node[795].veinsmobility 	maxSpeed 	15.64999961853
scalar IntersectionExampleScenario.node[795].veinsmobility 	totalDistance 	253.11402130127
scalar IntersectionExampleScenario.node[795].veinsmobility 	totalCO2Emission 	60.078992664734
scalar IntersectionExampleScenario.node[796].appl 	VehicleRemoved 	0
scalar IntersectionExampleScenario.node[796].appl 	ArrivedAtDest 	0
scalar IntersectionExampleScenario.node[796].appl 	IntersectionEnterTime 	1783.25
scalar IntersectionExampleScenario.node[796].appl 	IntersectionExitTime 	-1
scalar IntersectionExampleScenario.node[796].appl 	NumberOfCollisions 	0
scalar IntersectionExampleScenario.node[796].nic.phy80211p 	busyTime 	0
scalar IntersectionExampleScenario.node[796].nic.mac1609_4 	ReceivedUnicastPackets 	0
scalar IntersectionExampleScenario.node[796].nic.mac1609_4 	ReceivedBroadcasts 	0
scalar IntersectionExampleScenario.node[796].nic.mac1609_4 	SentPackets 	0
scalar IntersectionExampleScenario.node[796].nic.mac1609_4 	SNIRLostPackets 	0
scalar IntersectionExampleScenario.node[796].nic.mac1609_4 	RXTXLostPackets 	0
scalar IntersectionExampleScenario.node[796].nic.mac1609_4 	TotalLostPackets 	0
scalar IntersectionExampleScenario.node[796].nic.mac1609_4 	DroppedPacketsInMac 	0
scalar IntersectionExampleScenario.node[796].nic.mac1609_4 	TooLittleTime 	0
scalar IntersectionExampleScenario.node[796].nic.mac1609_4 	TimesIntoBackoff 	0
scalar IntersectionExampleScenario.node[796].nic.mac1609_4 	SlotsBackoff 	0
scalar IntersectionExampleScenario.node[796].nic.mac1609_4 	NumInternalContention 	0
scalar IntersectionExampleScenario.node[796].nic.mac1609_4 	totalBusyTime 	0
scalar IntersectionExampleScenario.node[796].veinsmobility 	startTime 	1783.25
scalar IntersectionExampleScenario.node[796].veinsmobility 	totalTime 	16.75
scalar IntersectionExampleScenario.node[796].veinsmobility 	stopTime 	1800
scalar IntersectionExampleScenario.node[796].veinsmobility 	minSpeed 	5.6500000953674
scalar IntersectionExampleScenario.node[796].veinsmobility 	maxSpeed 	15.64999961853
scalar IntersectionExampleScenario.node[796].veinsmobility 	totalDistance 	229.60302734375
scalar IntersectionExampleScenario.node[796].veinsmobility 	totalCO2Emission 	56.941796005682
scalar IntersectionExampleScenario.node[797].appl 	VehicleRemoved 	0
scalar IntersectionExampleScenario.node[797].appl 	ArrivedAtDest 	0
scalar IntersectionExampleScenario.node[797].appl 	IntersectionEnterTime 	1786
scalar IntersectionExampleScenario.node[797].appl 	IntersectionExitTime 	-1
scalar IntersectionExampleScenario.node[797].appl 	NumberOfCollisions 	0
scalar IntersectionExampleScenario.node[797].nic.phy80211p 	busyTime 	0
scalar IntersectionExampleScenario.node[797].nic.mac1609_4 	ReceivedUnicastPackets 	0
scalar IntersectionExampleScenario.node[797].nic.mac1609_4 	ReceivedBroadcasts 	0
scalar IntersectionExampleScenario.node[797].nic.mac1609_4 	SentPackets 	0
scalar IntersectionExampleScenario.node[797].nic.mac1609_4 	SNIRLostPackets 	0
scalar IntersectionExampleScenario.node[797].nic.mac1609_4 	RXTXLostPackets 	0
scalar IntersectionExampleScenario.node[797].nic.mac1609_4 	TotalLostPackets 	0
scalar IntersectionExampleScenario.node[797].nic.mac1609_4 	DroppedPacketsInMac 	0
scalar IntersectionExampleScenario.node[797].nic.mac1609_4 	TooLittleTime 	0
scalar IntersectionExampleScenario.node[797].nic.mac1609_4 	TimesIntoBackoff 	0
scalar IntersectionExampleScenario.node[797].nic.mac1609_4 	SlotsBackoff 	0
scalar IntersectionExampleScenario.node[797].nic.mac1609_4 	NumInternalContention 	0
scalar IntersectionExampleScenario.node[797].nic.mac1609_4 	totalBusyTime 	0
scalar IntersectionExampleScenario.node[797].veinsmobility 	startTime 	1786
scalar IntersectionExampleScenario.node[797].veinsmobility 	totalTime 	14
scalar IntersectionExampleScenario.node[797].veinsmobility 	stopTime 	1800
scalar IntersectionExampleScenario.node[797].veinsmobility 	minSpeed 	5.6500000953674
scalar IntersectionExampleScenario.node[797].veinsmobility 	maxSpeed 	15.02499961853
scalar IntersectionExampleScenario.node[797].veinsmobility 	totalDistance 	184.79632568359
scalar IntersectionExampleScenario.node[797].veinsmobility 	totalCO2Emission 	50.328133314273
scalar IntersectionExampleScenario.node[798].appl 	VehicleRemoved 	0
scalar IntersectionExampleScenario.node[798].appl 	ArrivedAtDest 	0
scalar IntersectionExampleScenario.node[798].appl 	IntersectionEnterTime 	1789.25
scalar IntersectionExampleScenario.node[798].appl 	IntersectionExitTime 	-1
scalar IntersectionExampleScenario.node[798].appl 	NumberOfCollisions 	0
scalar IntersectionExampleScenario.node[798].nic.phy80211p 	busyTime 	0
scalar IntersectionExampleScenario.node[798].nic.mac1609_4 	ReceivedUnicastPackets 	0
scalar IntersectionExampleScenario.node[798].nic.mac1609_4 	ReceivedBroadcasts 	0
scalar IntersectionExampleScenario.node[798].nic.mac1609_4 	SentPackets 	0
scalar IntersectionExampleScenario.node[798].nic.mac1609_4 	SNIRLostPackets 	0
scalar IntersectionExampleScenario.node[798].nic.mac1609_4 	RXTXLostPackets 	0
scalar IntersectionExampleScenario.node[798].nic.mac1609_4 	TotalLostPackets 	0
scalar IntersectionExampleScenario.node[798].nic.mac1609_4 	DroppedPacketsInMac 	0
scalar IntersectionExampleScenario.node[798].nic.mac1609_4 	TooLittleTime 	0
scalar IntersectionExampleScenario.node[798].nic.mac1609_4 	TimesIntoBackoff 	0
scalar IntersectionExampleScenario.node[798].nic.mac1609_4 	SlotsBackoff 	0
scalar IntersectionExampleScenario.node[798].nic.mac1609_4 	NumInternalContention 	0
scalar IntersectionExampleScenario.node[798].nic.mac1609_4 	totalBusyTime 	0
scalar IntersectionExampleScenario.node[798].veinsmobility 	startTime 	1789.25
scalar IntersectionExampleScenario.node[798].veinsmobility 	totalTime 	10.75
scalar IntersectionExampleScenario.node[798].veinsmobility 	stopTime 	1800
scalar IntersectionExampleScenario.node[798].veinsmobility 	minSpeed 	5.6500000953674
scalar IntersectionExampleScenario.node[798].veinsmobility 	maxSpeed 	15.449248313904
scalar IntersectionExampleScenario.node[798].veinsmobility 	totalDistance 	126.63061523438
scalar IntersectionExampleScenario.node[798].veinsmobility 	totalCO2Emission 	45.040950405421
scalar IntersectionExampleScenario.node[799].appl 	VehicleRemoved 	0
scalar IntersectionExampleScenario.node[799].appl 	ArrivedAtDest 	0
scalar IntersectionExampleScenario.node[799].appl 	IntersectionEnterTime 	1790.25
scalar IntersectionExampleScenario.node[799].appl 	IntersectionExitTime 	-1
scalar IntersectionExampleScenario.node[799].appl 	NumberOfCollisions 	0
scalar IntersectionExampleScenario.node[799].nic.phy80211p 	busyTime 	0
scalar IntersectionExampleScenario.node[799].nic.mac1609_4 	ReceivedUnicastPackets 	0
scalar IntersectionExampleScenario.node[799].nic.mac1609_4 	ReceivedBroadcasts 	0
scalar IntersectionExampleScenario.node[799].nic.mac1609_4 	SentPackets 	0
scalar IntersectionExampleScenario.node[799].nic.mac1609_4 	SNIRLostPackets 	0
scalar IntersectionExampleScenario.node[799].nic.mac1609_4 	RXTXLostPackets 	0
scalar IntersectionExampleScenario.node[799].nic.mac1609_4 	TotalLostPackets 	0
scalar IntersectionExampleScenario.node[799].nic.mac1609_4 	DroppedPacketsInMac 	0
scalar IntersectionExampleScenario.node[799].nic.mac1609_4 	TooLittleTime 	0
scalar IntersectionExampleScenario.node[799].nic.mac1609_4 	TimesIntoBackoff 	0
scalar IntersectionExampleScenario.node[799].nic.mac1609_4 	SlotsBackoff 	0
scalar IntersectionExampleScenario.node[799].nic.mac1609_4 	NumInternalContention 	0
scalar IntersectionExampleScenario.node[799].nic.mac1609_4 	totalBusyTime 	0
scalar IntersectionExampleScenario.node[799].veinsmobility 	startTime 	1790.25
scalar IntersectionExampleScenario.node[799].veinsmobility 	totalTime 	9.75
scalar IntersectionExampleScenario.node[799].veinsmobility 	stopTime 	1800
scalar IntersectionExampleScenario.node[799].veinsmobility 	minSpeed 	5.6500000953674
scalar IntersectionExampleScenario.node[799].veinsmobility 	maxSpeed 	15.793916702271
scalar IntersectionExampleScenario.node[799].veinsmobility 	totalDistance 	129.47589111328
scalar IntersectionExampleScenario.node[799].veinsmobility 	totalCO2Emission 	44.51808078158
scalar IntersectionExampleScenario.node[800].appl 	VehicleRemoved 	0
scalar IntersectionExampleScenario.node[800].appl 	ArrivedAtDest 	0
scalar IntersectionExampleScenario.node[800].appl 	IntersectionEnterTime 	1792.25
scalar IntersectionExampleScenario.node[800].appl 	IntersectionExitTime 	-1
scalar IntersectionExampleScenario.node[800].appl 	NumberOfCollisions 	0
scalar IntersectionExampleScenario.node[800].nic.phy80211p 	busyTime 	0
scalar IntersectionExampleScenario.node[800].nic.mac1609_4 	ReceivedUnicastPackets 	0
scalar IntersectionExampleScenario.node[800].nic.mac1609_4 	ReceivedBroadcasts 	0
scalar IntersectionExampleScenario.node[800].nic.mac1609_4 	SentPackets 	0
scalar IntersectionExampleScenario.node[800].nic.mac1609_4 	SNIRLostPackets 	0
scalar IntersectionExampleScenario.node[800].nic.mac1609_4 	RXTXLostPackets 	0
scalar IntersectionExampleScenario.node[800].nic.mac1609_4 	TotalLostPackets 	0
scalar IntersectionExampleScenario.node[800].nic.mac1609_4 	DroppedPacketsInMac 	0
scalar IntersectionExampleScenario.node[800].nic.mac1609_4 	TooLittleTime 	0
scalar IntersectionExampleScenario.node[800].nic.mac1609_4 	TimesIntoBackoff 	0
scalar IntersectionExampleScenario.node[800].nic.mac1609_4 	SlotsBackoff 	0
scalar IntersectionExampleScenario.node[800].nic.mac1609_4 	NumInternalContention 	0
scalar IntersectionExampleScenario.node[800].nic.mac1609_4 	totalBusyTime 	0
scalar IntersectionExampleScenario.node[800].veinsmobility 	startTime 	1792.25
scalar IntersectionExampleScenario.node[800].veinsmobility 	totalTime 	7.75
scalar IntersectionExampleScenario.node[800].veinsmobility 	stopTime 	1800
scalar IntersectionExampleScenario.node[800].veinsmobility 	minSpeed 	5.6500000953674
scalar IntersectionExampleScenario.node[800].veinsmobility 	maxSpeed 	14.639561653137
scalar IntersectionExampleScenario.node[800].veinsmobility 	totalDistance 	92.305541992188
scalar IntersectionExampleScenario.node[800].veinsmobility 	totalCO2Emission 	35.486595369473
scalar IntersectionExampleScenario.node[801].appl 	VehicleRemoved 	0
scalar IntersectionExampleScenario.node[801].appl 	ArrivedAtDest 	0
scalar IntersectionExampleScenario.node[801].appl 	IntersectionEnterTime 	1793.5
scalar IntersectionExampleScenario.node[801].appl 	IntersectionExitTime 	-1
scalar IntersectionExampleScenario.node[801].appl 	NumberOfCollisions 	0
scalar IntersectionExampleScenario.node[801].nic.phy80211p 	busyTime 	0
scalar IntersectionExampleScenario.node[801].nic.mac1609_4 	ReceivedUnicastPackets 	0
scalar IntersectionExampleScenario.node[801].nic.mac1609_4 	ReceivedBroadcasts 	0
scalar IntersectionExampleScenario.node[801].nic.mac1609_4 	SentPackets 	0
scalar IntersectionExampleScenario.node[801].nic.mac1609_4 	SNIRLostPackets 	0
scalar IntersectionExampleScenario.node[801].nic.mac1609_4 	RXTXLostPackets 	0
scalar IntersectionExampleScenario.node[801].nic.mac1609_4 	TotalLostPackets 	0
scalar IntersectionExampleScenario.node[801].nic.mac1609_4 	DroppedPacketsInMac 	0
scalar IntersectionExampleScenario.node[801].nic.mac1609_4 	TooLittleTime 	0
scalar IntersectionExampleScenario.node[801].nic.mac1609_4 	TimesIntoBackoff 	0
scalar IntersectionExampleScenario.node[801].nic.mac1609_4 	SlotsBackoff 	0
scalar IntersectionExampleScenario.node[801].nic.mac1609_4 	NumInternalContention 	0
scalar IntersectionExampleScenario.node[801].nic.mac1609_4 	totalBusyTime 	0
scalar IntersectionExampleScenario.node[801].veinsmobility 	startTime 	1793.5
scalar IntersectionExampleScenario.node[801].veinsmobility 	totalTime 	6.5
scalar IntersectionExampleScenario.node[801].veinsmobility 	stopTime 	1800
scalar IntersectionExampleScenario.node[801].veinsmobility 	minSpeed 	5.6500000953674
scalar IntersectionExampleScenario.node[801].veinsmobility 	maxSpeed 	15.64999961853
scalar IntersectionExampleScenario.node[801].veinsmobility 	totalDistance 	78.519493103027
scalar IntersectionExampleScenario.node[801].veinsmobility 	totalCO2Emission 	37.135459653356
scalar IntersectionExampleScenario.node[802].appl 	VehicleRemoved 	0
scalar IntersectionExampleScenario.node[802].appl 	ArrivedAtDest 	0
scalar IntersectionExampleScenario.node[802].appl 	IntersectionEnterTime 	1797.5
scalar IntersectionExampleScenario.node[802].appl 	IntersectionExitTime 	-1
scalar IntersectionExampleScenario.node[802].appl 	NumberOfCollisions 	0
scalar IntersectionExampleScenario.node[802].nic.phy80211p 	busyTime 	0
scalar IntersectionExampleScenario.node[802].nic.mac1609_4 	ReceivedUnicastPackets 	0
scalar IntersectionExampleScenario.node[802].nic.mac1609_4 	ReceivedBroadcasts 	0
scalar IntersectionExampleScenario.node[802].nic.mac1609_4 	SentPackets 	0
scalar IntersectionExampleScenario.node[802].nic.mac1609_4 	SNIRLostPackets 	0
scalar IntersectionExampleScenario.node[802].nic.mac1609_4 	RXTXLostPackets 	0
scalar IntersectionExampleScenario.node[802].nic.mac1609_4 	TotalLostPackets 	0
scalar IntersectionExampleScenario.node[802].nic.mac1609_4 	DroppedPacketsInMac 	0
scalar IntersectionExampleScenario.node[802].nic.mac1609_4 	TooLittleTime 	0
scalar IntersectionExampleScenario.node[802].nic.mac1609_4 	TimesIntoBackoff 	0
scalar IntersectionExampleScenario.node[802].nic.mac1609_4 	SlotsBackoff 	0
scalar IntersectionExampleScenario.node[802].nic.mac1609_4 	NumInternalContention 	0
scalar IntersectionExampleScenario.node[802].nic.mac1609_4 	totalBusyTime 	0
scalar IntersectionExampleScenario.node[802].veinsmobility 	startTime 	1797.5
scalar IntersectionExampleScenario.node[802].veinsmobility 	totalTime 	2.5
scalar IntersectionExampleScenario.node[802].veinsmobility 	stopTime 	1800
scalar IntersectionExampleScenario.node[802].veinsmobility 	minSpeed 	5.6500000953674
scalar IntersectionExampleScenario.node[802].veinsmobility 	maxSpeed 	11.27499961853
scalar IntersectionExampleScenario.node[802].veinsmobility 	totalDistance 	20.375
scalar IntersectionExampleScenario.node[802].veinsmobility 	totalCO2Emission 	15.500237724595
scalar IntersectionExampleScenario.node[803].appl 	VehicleRemoved 	0
scalar IntersectionExampleScenario.node[803].appl 	ArrivedAtDest 	0
scalar IntersectionExampleScenario.node[803].appl 	IntersectionEnterTime 	1798.5
scalar IntersectionExampleScenario.node[803].appl 	IntersectionExitTime 	-1
scalar IntersectionExampleScenario.node[803].appl 	NumberOfCollisions 	0
scalar IntersectionExampleScenario.node[803].nic.phy80211p 	busyTime 	0
scalar IntersectionExampleScenario.node[803].nic.mac1609_4 	ReceivedUnicastPackets 	0
scalar IntersectionExampleScenario.node[803].nic.mac1609_4 	ReceivedBroadcasts 	0
scalar IntersectionExampleScenario.node[803].nic.mac1609_4 	SentPackets 	0
scalar IntersectionExampleScenario.node[803].nic.mac1609_4 	SNIRLostPackets 	0
scalar IntersectionExampleScenario.node[803].nic.mac1609_4 	RXTXLostPackets 	0
scalar IntersectionExampleScenario.node[803].nic.mac1609_4 	TotalLostPackets 	0
scalar IntersectionExampleScenario.node[803].nic.mac1609_4 	DroppedPacketsInMac 	0
scalar IntersectionExampleScenario.node[803].nic.mac1609_4 	TooLittleTime 	0
scalar IntersectionExampleScenario.node[803].nic.mac1609_4 	TimesIntoBackoff 	0
scalar IntersectionExampleScenario.node[803].nic.mac1609_4 	SlotsBackoff 	0
scalar IntersectionExampleScenario.node[803].nic.mac1609_4 	NumInternalContention 	0
scalar IntersectionExampleScenario.node[803].nic.mac1609_4 	totalBusyTime 	0
scalar IntersectionExampleScenario.node[803].veinsmobility 	startTime 	1798.5
scalar IntersectionExampleScenario.node[803].veinsmobility 	totalTime 	1.5
scalar IntersectionExampleScenario.node[803].veinsmobility 	stopTime 	1800
scalar IntersectionExampleScenario.node[803].veinsmobility 	minSpeed 	5.6500000953674
scalar IntersectionExampleScenario.node[803].veinsmobility 	maxSpeed 	8.7749996185303
scalar IntersectionExampleScenario.node[803].veinsmobility 	totalDistance 	10.349990844727
scalar IntersectionExampleScenario.node[803].veinsmobility 	totalCO2Emission 	7.5597628883124
