version 2
run nodebug-2-20200606-12:19:44-21956
attr configname nodebug
attr datetime 20200606-12:19:44
attr experiment nodebug
attr inifile omnetpp.ini
attr iterationvars ""
attr iterationvars2 $repetition=2
attr measurement ""
attr network "\"org.car2x.veins.modules.application.ExtTraCIScenarioManagerLaunchd.IntersectionExampleScenario\""
attr processid 21956
attr repetition 2
attr replication #2
attr resultdir results
attr runnumber 2
attr seedset 2
param **.coreDebug false
param **.debug false
param *.**.nic.mac1609_4.bitrate 18Mbps
param *.**.nic.mac1609_4.txPower 20mW
param *.**.nic.mac1609_4.useServiceChannel false
param *.**.nic.phy80211p.analogueModels "xmldoc(\"config.xml\")"
param *.**.nic.phy80211p.decider "xmldoc(\"config.xml\")"
param *.**.nic.phy80211p.sensitivity -89dBm
param *.**.nic.phy80211p.thermalNoise -110dBm
param *.**.nic.phy80211p.usePropagationDelay true
param *.**.nic.phy80211p.useThermalNoise true
param *.annotations.draw false
param *.connectionManager.alpha 2.0
param *.connectionManager.carrierFrequency "5.890e9 Hz"
param *.connectionManager.pMax 20mW
param *.connectionManager.sat -89dBm
param *.connectionManager.sendDirect true
param *.manager.autoShutdown true
param *.manager.host "\"localhost\""
param *.manager.launchConfig "xmldoc(\"paramics.launchd.xml\")"
param *.manager.margin 25
param *.manager.moduleDisplayString "\"\""
param *.manager.moduleName "\"node\""
param *.manager.moduleType "\"org.car2x.veins.nodes.Car\""
param *.manager.port 9999
param *.manager.updateInterval 250ms
param *.node[*0].veinsmobility.accidentCount 0
param *.node[*0].veinsmobility.accidentDuration 30s
param *.node[*0].veinsmobility.accidentStart 75s
param *.node[*].appl.LiderSelectZoneRadio 55.0
param *.node[*].appl.ShareDataZoneRadio 110.0
param *.node[*].appl.TiempoSemaforo 30.0
param *.node[*].appl.beaconInterval 1s
param *.node[*].appl.beaconPriority 3
param *.node[*].appl.dataOnSch false
param *.node[*].appl.dataPriority 2
param *.node[*].appl.debug false
param *.node[*].appl.headerLength "256 bit"
param *.node[*].appl.maxOffset 0.005s
param *.node[*].appl.sendBeacons false
param *.node[*].appl.sendData true
param *.node[*].applType "\"Dummy\""
param *.node[*].mobilityType "\"TraCIMobility\""
param *.node[*].mobilityType.debug true
param *.node[*].veinsmobility.x 0
param *.node[*].veinsmobility.y 0
param *.node[*].veinsmobility.z 1.895
param *.node[*].veinsmobilityType "\"org.car2x.veins.modules.mobility.traci.TraCIMobility\""
param *.node[*].veinsmobilityType.debug true
param *.playgroundSizeX 8500m
param *.playgroundSizeY 8500m
param *.playgroundSizeZ 50m
param *.world.use2D false
param *.world.useTorus false

scalar IntersectionExampleScenario.node[0].appl 	VehicleRemoved 	0
scalar IntersectionExampleScenario.node[0].appl 	ArrivedAtDest 	1
scalar IntersectionExampleScenario.node[0].appl 	IntersectionEnterTime 	0.75
scalar IntersectionExampleScenario.node[0].appl 	IntersectionExitTime 	24.30441529915
scalar IntersectionExampleScenario.node[0].appl 	NumberOfCollisions 	0
scalar IntersectionExampleScenario.node[0].nic.phy80211p 	busyTime 	0
scalar IntersectionExampleScenario.node[0].nic.mac1609_4 	ReceivedUnicastPackets 	0
scalar IntersectionExampleScenario.node[0].nic.mac1609_4 	ReceivedBroadcasts 	0
scalar IntersectionExampleScenario.node[0].nic.mac1609_4 	SentPackets 	0
scalar IntersectionExampleScenario.node[0].nic.mac1609_4 	SNIRLostPackets 	0
scalar IntersectionExampleScenario.node[0].nic.mac1609_4 	RXTXLostPackets 	0
scalar IntersectionExampleScenario.node[0].nic.mac1609_4 	TotalLostPackets 	0
scalar IntersectionExampleScenario.node[0].nic.mac1609_4 	DroppedPacketsInMac 	0
scalar IntersectionExampleScenario.node[0].nic.mac1609_4 	TooLittleTime 	0
scalar IntersectionExampleScenario.node[0].nic.mac1609_4 	TimesIntoBackoff 	0
scalar IntersectionExampleScenario.node[0].nic.mac1609_4 	SlotsBackoff 	0
scalar IntersectionExampleScenario.node[0].nic.mac1609_4 	NumInternalContention 	0
scalar IntersectionExampleScenario.node[0].nic.mac1609_4 	totalBusyTime 	0
scalar IntersectionExampleScenario.node[0].veinsmobility 	startTime 	0.75
scalar IntersectionExampleScenario.node[0].veinsmobility 	totalTime 	40
scalar IntersectionExampleScenario.node[0].veinsmobility 	stopTime 	41
scalar IntersectionExampleScenario.node[0].veinsmobility 	minSpeed 	5.6500000953674
scalar IntersectionExampleScenario.node[0].veinsmobility 	maxSpeed 	15.875
scalar IntersectionExampleScenario.node[0].veinsmobility 	totalDistance 	543.20527015685
scalar IntersectionExampleScenario.node[0].veinsmobility 	totalCO2Emission 	127.69257055967
scalar IntersectionExampleScenario.node[1].appl 	VehicleRemoved 	0
scalar IntersectionExampleScenario.node[1].appl 	ArrivedAtDest 	1
scalar IntersectionExampleScenario.node[1].appl 	IntersectionEnterTime 	2.5
scalar IntersectionExampleScenario.node[1].appl 	IntersectionExitTime 	26.577408871293
scalar IntersectionExampleScenario.node[1].appl 	NumberOfCollisions 	0
scalar IntersectionExampleScenario.node[1].nic.phy80211p 	busyTime 	0
scalar IntersectionExampleScenario.node[1].nic.mac1609_4 	ReceivedUnicastPackets 	0
scalar IntersectionExampleScenario.node[1].nic.mac1609_4 	ReceivedBroadcasts 	0
scalar IntersectionExampleScenario.node[1].nic.mac1609_4 	SentPackets 	0
scalar IntersectionExampleScenario.node[1].nic.mac1609_4 	SNIRLostPackets 	0
scalar IntersectionExampleScenario.node[1].nic.mac1609_4 	RXTXLostPackets 	0
scalar IntersectionExampleScenario.node[1].nic.mac1609_4 	TotalLostPackets 	0
scalar IntersectionExampleScenario.node[1].nic.mac1609_4 	DroppedPacketsInMac 	0
scalar IntersectionExampleScenario.node[1].nic.mac1609_4 	TooLittleTime 	0
scalar IntersectionExampleScenario.node[1].nic.mac1609_4 	TimesIntoBackoff 	0
scalar IntersectionExampleScenario.node[1].nic.mac1609_4 	SlotsBackoff 	0
scalar IntersectionExampleScenario.node[1].nic.mac1609_4 	NumInternalContention 	0
scalar IntersectionExampleScenario.node[1].nic.mac1609_4 	totalBusyTime 	0
scalar IntersectionExampleScenario.node[1].veinsmobility 	startTime 	2.5
scalar IntersectionExampleScenario.node[1].veinsmobility 	totalTime 	41.25
scalar IntersectionExampleScenario.node[1].veinsmobility 	stopTime 	44
scalar IntersectionExampleScenario.node[1].veinsmobility 	minSpeed 	5.6500000953674
scalar IntersectionExampleScenario.node[1].veinsmobility 	maxSpeed 	15.25
scalar IntersectionExampleScenario.node[1].veinsmobility 	totalDistance 	544.92889274248
scalar IntersectionExampleScenario.node[1].veinsmobility 	totalCO2Emission 	123.27490658231
scalar IntersectionExampleScenario.node[3].appl 	VehicleRemoved 	0
scalar IntersectionExampleScenario.node[3].appl 	ArrivedAtDest 	1
scalar IntersectionExampleScenario.node[3].appl 	IntersectionEnterTime 	7.5
scalar IntersectionExampleScenario.node[3].appl 	IntersectionExitTime 	30.59816689344
scalar IntersectionExampleScenario.node[3].appl 	NumberOfCollisions 	0
scalar IntersectionExampleScenario.node[3].nic.phy80211p 	busyTime 	0
scalar IntersectionExampleScenario.node[3].nic.mac1609_4 	ReceivedUnicastPackets 	0
scalar IntersectionExampleScenario.node[3].nic.mac1609_4 	ReceivedBroadcasts 	0
scalar IntersectionExampleScenario.node[3].nic.mac1609_4 	SentPackets 	0
scalar IntersectionExampleScenario.node[3].nic.mac1609_4 	SNIRLostPackets 	0
scalar IntersectionExampleScenario.node[3].nic.mac1609_4 	RXTXLostPackets 	0
scalar IntersectionExampleScenario.node[3].nic.mac1609_4 	TotalLostPackets 	0
scalar IntersectionExampleScenario.node[3].nic.mac1609_4 	DroppedPacketsInMac 	0
scalar IntersectionExampleScenario.node[3].nic.mac1609_4 	TooLittleTime 	0
scalar IntersectionExampleScenario.node[3].nic.mac1609_4 	TimesIntoBackoff 	0
scalar IntersectionExampleScenario.node[3].nic.mac1609_4 	SlotsBackoff 	0
scalar IntersectionExampleScenario.node[3].nic.mac1609_4 	NumInternalContention 	0
scalar IntersectionExampleScenario.node[3].nic.mac1609_4 	totalBusyTime 	0
scalar IntersectionExampleScenario.node[3].veinsmobility 	startTime 	7.5
scalar IntersectionExampleScenario.node[3].veinsmobility 	totalTime 	39.25
scalar IntersectionExampleScenario.node[3].veinsmobility 	stopTime 	47
scalar IntersectionExampleScenario.node[3].veinsmobility 	minSpeed 	5.6500000953674
scalar IntersectionExampleScenario.node[3].veinsmobility 	maxSpeed 	16.021591186523
scalar IntersectionExampleScenario.node[3].veinsmobility 	totalDistance 	543.0994358428
scalar IntersectionExampleScenario.node[3].veinsmobility 	totalCO2Emission 	129.10478422512
scalar IntersectionExampleScenario.node[6].appl 	VehicleRemoved 	0
scalar IntersectionExampleScenario.node[6].appl 	ArrivedAtDest 	1
scalar IntersectionExampleScenario.node[6].appl 	IntersectionEnterTime 	10.25
scalar IntersectionExampleScenario.node[6].appl 	IntersectionExitTime 	33.763368210581
scalar IntersectionExampleScenario.node[6].appl 	NumberOfCollisions 	0
scalar IntersectionExampleScenario.node[6].nic.phy80211p 	busyTime 	0
scalar IntersectionExampleScenario.node[6].nic.mac1609_4 	ReceivedUnicastPackets 	0
scalar IntersectionExampleScenario.node[6].nic.mac1609_4 	ReceivedBroadcasts 	0
scalar IntersectionExampleScenario.node[6].nic.mac1609_4 	SentPackets 	0
scalar IntersectionExampleScenario.node[6].nic.mac1609_4 	SNIRLostPackets 	0
scalar IntersectionExampleScenario.node[6].nic.mac1609_4 	RXTXLostPackets 	0
scalar IntersectionExampleScenario.node[6].nic.mac1609_4 	TotalLostPackets 	0
scalar IntersectionExampleScenario.node[6].nic.mac1609_4 	DroppedPacketsInMac 	0
scalar IntersectionExampleScenario.node[6].nic.mac1609_4 	TooLittleTime 	0
scalar IntersectionExampleScenario.node[6].nic.mac1609_4 	TimesIntoBackoff 	0
scalar IntersectionExampleScenario.node[6].nic.mac1609_4 	SlotsBackoff 	0
scalar IntersectionExampleScenario.node[6].nic.mac1609_4 	NumInternalContention 	0
scalar IntersectionExampleScenario.node[6].nic.mac1609_4 	totalBusyTime 	0
scalar IntersectionExampleScenario.node[6].veinsmobility 	startTime 	10.25
scalar IntersectionExampleScenario.node[6].veinsmobility 	totalTime 	39.25
scalar IntersectionExampleScenario.node[6].veinsmobility 	stopTime 	49.75
scalar IntersectionExampleScenario.node[6].veinsmobility 	minSpeed 	5.6500000953674
scalar IntersectionExampleScenario.node[6].veinsmobility 	maxSpeed 	16.36882019043
scalar IntersectionExampleScenario.node[6].veinsmobility 	totalDistance 	563.15251862952
scalar IntersectionExampleScenario.node[6].veinsmobility 	totalCO2Emission 	133.07490421736
scalar IntersectionExampleScenario.node[5].appl 	VehicleRemoved 	0
scalar IntersectionExampleScenario.node[5].appl 	ArrivedAtDest 	1
scalar IntersectionExampleScenario.node[5].appl 	IntersectionEnterTime 	8.75
scalar IntersectionExampleScenario.node[5].appl 	IntersectionExitTime 	37.512066365191
scalar IntersectionExampleScenario.node[5].appl 	NumberOfCollisions 	0
scalar IntersectionExampleScenario.node[5].nic.phy80211p 	busyTime 	0
scalar IntersectionExampleScenario.node[5].nic.mac1609_4 	ReceivedUnicastPackets 	0
scalar IntersectionExampleScenario.node[5].nic.mac1609_4 	ReceivedBroadcasts 	0
scalar IntersectionExampleScenario.node[5].nic.mac1609_4 	SentPackets 	0
scalar IntersectionExampleScenario.node[5].nic.mac1609_4 	SNIRLostPackets 	0
scalar IntersectionExampleScenario.node[5].nic.mac1609_4 	RXTXLostPackets 	0
scalar IntersectionExampleScenario.node[5].nic.mac1609_4 	TotalLostPackets 	0
scalar IntersectionExampleScenario.node[5].nic.mac1609_4 	DroppedPacketsInMac 	0
scalar IntersectionExampleScenario.node[5].nic.mac1609_4 	TooLittleTime 	0
scalar IntersectionExampleScenario.node[5].nic.mac1609_4 	TimesIntoBackoff 	0
scalar IntersectionExampleScenario.node[5].nic.mac1609_4 	SlotsBackoff 	0
scalar IntersectionExampleScenario.node[5].nic.mac1609_4 	NumInternalContention 	0
scalar IntersectionExampleScenario.node[5].nic.mac1609_4 	totalBusyTime 	0
scalar IntersectionExampleScenario.node[5].veinsmobility 	startTime 	8.75
scalar IntersectionExampleScenario.node[5].veinsmobility 	totalTime 	44.5
scalar IntersectionExampleScenario.node[5].veinsmobility 	stopTime 	53.5
scalar IntersectionExampleScenario.node[5].veinsmobility 	minSpeed 	1.1562950611115
scalar IntersectionExampleScenario.node[5].veinsmobility 	maxSpeed 	15.5
scalar IntersectionExampleScenario.node[5].veinsmobility 	totalDistance 	567.15238952637
scalar IntersectionExampleScenario.node[5].veinsmobility 	totalCO2Emission 	138.0380519892
scalar IntersectionExampleScenario.node[2].appl 	VehicleRemoved 	0
scalar IntersectionExampleScenario.node[2].appl 	ArrivedAtDest 	1
scalar IntersectionExampleScenario.node[2].appl 	IntersectionEnterTime 	6.25
scalar IntersectionExampleScenario.node[2].appl 	IntersectionExitTime 	35.566142761294
scalar IntersectionExampleScenario.node[2].appl 	NumberOfCollisions 	0
scalar IntersectionExampleScenario.node[2].nic.phy80211p 	busyTime 	0
scalar IntersectionExampleScenario.node[2].nic.mac1609_4 	ReceivedUnicastPackets 	0
scalar IntersectionExampleScenario.node[2].nic.mac1609_4 	ReceivedBroadcasts 	0
scalar IntersectionExampleScenario.node[2].nic.mac1609_4 	SentPackets 	0
scalar IntersectionExampleScenario.node[2].nic.mac1609_4 	SNIRLostPackets 	0
scalar IntersectionExampleScenario.node[2].nic.mac1609_4 	RXTXLostPackets 	0
scalar IntersectionExampleScenario.node[2].nic.mac1609_4 	TotalLostPackets 	0
scalar IntersectionExampleScenario.node[2].nic.mac1609_4 	DroppedPacketsInMac 	0
scalar IntersectionExampleScenario.node[2].nic.mac1609_4 	TooLittleTime 	0
scalar IntersectionExampleScenario.node[2].nic.mac1609_4 	TimesIntoBackoff 	0
scalar IntersectionExampleScenario.node[2].nic.mac1609_4 	SlotsBackoff 	0
scalar IntersectionExampleScenario.node[2].nic.mac1609_4 	NumInternalContention 	0
scalar IntersectionExampleScenario.node[2].nic.mac1609_4 	totalBusyTime 	0
scalar IntersectionExampleScenario.node[2].veinsmobility 	startTime 	6.25
scalar IntersectionExampleScenario.node[2].veinsmobility 	totalTime 	47
scalar IntersectionExampleScenario.node[2].veinsmobility 	stopTime 	53.5
scalar IntersectionExampleScenario.node[2].veinsmobility 	minSpeed 	0
scalar IntersectionExampleScenario.node[2].veinsmobility 	maxSpeed 	14.625
scalar IntersectionExampleScenario.node[2].veinsmobility 	totalDistance 	544.6187811032
scalar IntersectionExampleScenario.node[2].veinsmobility 	totalCO2Emission 	130.83650789025
scalar IntersectionExampleScenario.node[4].appl 	VehicleRemoved 	0
scalar IntersectionExampleScenario.node[4].appl 	ArrivedAtDest 	1
scalar IntersectionExampleScenario.node[4].appl 	IntersectionEnterTime 	8.75
scalar IntersectionExampleScenario.node[4].appl 	IntersectionExitTime 	46.259955683869
scalar IntersectionExampleScenario.node[4].appl 	NumberOfCollisions 	0
scalar IntersectionExampleScenario.node[4].nic.phy80211p 	busyTime 	0
scalar IntersectionExampleScenario.node[4].nic.mac1609_4 	ReceivedUnicastPackets 	0
scalar IntersectionExampleScenario.node[4].nic.mac1609_4 	ReceivedBroadcasts 	0
scalar IntersectionExampleScenario.node[4].nic.mac1609_4 	SentPackets 	0
scalar IntersectionExampleScenario.node[4].nic.mac1609_4 	SNIRLostPackets 	0
scalar IntersectionExampleScenario.node[4].nic.mac1609_4 	RXTXLostPackets 	0
scalar IntersectionExampleScenario.node[4].nic.mac1609_4 	TotalLostPackets 	0
scalar IntersectionExampleScenario.node[4].nic.mac1609_4 	DroppedPacketsInMac 	0
scalar IntersectionExampleScenario.node[4].nic.mac1609_4 	TooLittleTime 	0
scalar IntersectionExampleScenario.node[4].nic.mac1609_4 	TimesIntoBackoff 	0
scalar IntersectionExampleScenario.node[4].nic.mac1609_4 	SlotsBackoff 	0
scalar IntersectionExampleScenario.node[4].nic.mac1609_4 	NumInternalContention 	0
scalar IntersectionExampleScenario.node[4].nic.mac1609_4 	totalBusyTime 	0
scalar IntersectionExampleScenario.node[4].veinsmobility 	startTime 	8.75
scalar IntersectionExampleScenario.node[4].veinsmobility 	totalTime 	53.5
scalar IntersectionExampleScenario.node[4].veinsmobility 	stopTime 	62.5
scalar IntersectionExampleScenario.node[4].veinsmobility 	minSpeed 	0
scalar IntersectionExampleScenario.node[4].veinsmobility 	maxSpeed 	15.64999961853
scalar IntersectionExampleScenario.node[4].veinsmobility 	totalDistance 	552.47965240479
scalar IntersectionExampleScenario.node[4].veinsmobility 	totalCO2Emission 	145.9931579495
scalar IntersectionExampleScenario.node[7].appl 	VehicleRemoved 	0
scalar IntersectionExampleScenario.node[7].appl 	ArrivedAtDest 	1
scalar IntersectionExampleScenario.node[7].appl 	IntersectionEnterTime 	12
scalar IntersectionExampleScenario.node[7].appl 	IntersectionExitTime 	47.025217903371
scalar IntersectionExampleScenario.node[7].appl 	NumberOfCollisions 	0
scalar IntersectionExampleScenario.node[7].nic.phy80211p 	busyTime 	0
scalar IntersectionExampleScenario.node[7].nic.mac1609_4 	ReceivedUnicastPackets 	0
scalar IntersectionExampleScenario.node[7].nic.mac1609_4 	ReceivedBroadcasts 	0
scalar IntersectionExampleScenario.node[7].nic.mac1609_4 	SentPackets 	0
scalar IntersectionExampleScenario.node[7].nic.mac1609_4 	SNIRLostPackets 	0
scalar IntersectionExampleScenario.node[7].nic.mac1609_4 	RXTXLostPackets 	0
scalar IntersectionExampleScenario.node[7].nic.mac1609_4 	TotalLostPackets 	0
scalar IntersectionExampleScenario.node[7].nic.mac1609_4 	DroppedPacketsInMac 	0
scalar IntersectionExampleScenario.node[7].nic.mac1609_4 	TooLittleTime 	0
scalar IntersectionExampleScenario.node[7].nic.mac1609_4 	TimesIntoBackoff 	0
scalar IntersectionExampleScenario.node[7].nic.mac1609_4 	SlotsBackoff 	0
scalar IntersectionExampleScenario.node[7].nic.mac1609_4 	NumInternalContention 	0
scalar IntersectionExampleScenario.node[7].nic.mac1609_4 	totalBusyTime 	0
scalar IntersectionExampleScenario.node[7].veinsmobility 	startTime 	12
scalar IntersectionExampleScenario.node[7].veinsmobility 	totalTime 	51.75
scalar IntersectionExampleScenario.node[7].veinsmobility 	stopTime 	64
scalar IntersectionExampleScenario.node[7].veinsmobility 	minSpeed 	0
scalar IntersectionExampleScenario.node[7].veinsmobility 	maxSpeed 	15.64999961853
scalar IntersectionExampleScenario.node[7].veinsmobility 	totalDistance 	555.67982352522
scalar IntersectionExampleScenario.node[7].veinsmobility 	totalCO2Emission 	143.5021813279
scalar IntersectionExampleScenario.node[9].appl 	VehicleRemoved 	0
scalar IntersectionExampleScenario.node[9].appl 	ArrivedAtDest 	1
scalar IntersectionExampleScenario.node[9].appl 	IntersectionEnterTime 	18
scalar IntersectionExampleScenario.node[9].appl 	IntersectionExitTime 	49.58759404294
scalar IntersectionExampleScenario.node[9].appl 	NumberOfCollisions 	0
scalar IntersectionExampleScenario.node[9].nic.phy80211p 	busyTime 	0
scalar IntersectionExampleScenario.node[9].nic.mac1609_4 	ReceivedUnicastPackets 	0
scalar IntersectionExampleScenario.node[9].nic.mac1609_4 	ReceivedBroadcasts 	0
scalar IntersectionExampleScenario.node[9].nic.mac1609_4 	SentPackets 	0
scalar IntersectionExampleScenario.node[9].nic.mac1609_4 	SNIRLostPackets 	0
scalar IntersectionExampleScenario.node[9].nic.mac1609_4 	RXTXLostPackets 	0
scalar IntersectionExampleScenario.node[9].nic.mac1609_4 	TotalLostPackets 	0
scalar IntersectionExampleScenario.node[9].nic.mac1609_4 	DroppedPacketsInMac 	0
scalar IntersectionExampleScenario.node[9].nic.mac1609_4 	TooLittleTime 	0
scalar IntersectionExampleScenario.node[9].nic.mac1609_4 	TimesIntoBackoff 	0
scalar IntersectionExampleScenario.node[9].nic.mac1609_4 	SlotsBackoff 	0
scalar IntersectionExampleScenario.node[9].nic.mac1609_4 	NumInternalContention 	0
scalar IntersectionExampleScenario.node[9].nic.mac1609_4 	totalBusyTime 	0
scalar IntersectionExampleScenario.node[9].veinsmobility 	startTime 	18
scalar IntersectionExampleScenario.node[9].veinsmobility 	totalTime 	49.25
scalar IntersectionExampleScenario.node[9].veinsmobility 	stopTime 	67.5
scalar IntersectionExampleScenario.node[9].veinsmobility 	minSpeed 	3.0051691532135
scalar IntersectionExampleScenario.node[9].veinsmobility 	maxSpeed 	14.625
scalar IntersectionExampleScenario.node[9].veinsmobility 	totalDistance 	546.5447022255
scalar IntersectionExampleScenario.node[9].veinsmobility 	totalCO2Emission 	131.9357379216
scalar IntersectionExampleScenario.node[8].appl 	VehicleRemoved 	0
scalar IntersectionExampleScenario.node[8].appl 	ArrivedAtDest 	1
scalar IntersectionExampleScenario.node[8].appl 	IntersectionEnterTime 	15.5
scalar IntersectionExampleScenario.node[8].appl 	IntersectionExitTime 	55.298361581314
scalar IntersectionExampleScenario.node[8].appl 	NumberOfCollisions 	0
scalar IntersectionExampleScenario.node[8].nic.phy80211p 	busyTime 	0
scalar IntersectionExampleScenario.node[8].nic.mac1609_4 	ReceivedUnicastPackets 	0
scalar IntersectionExampleScenario.node[8].nic.mac1609_4 	ReceivedBroadcasts 	0
scalar IntersectionExampleScenario.node[8].nic.mac1609_4 	SentPackets 	0
scalar IntersectionExampleScenario.node[8].nic.mac1609_4 	SNIRLostPackets 	0
scalar IntersectionExampleScenario.node[8].nic.mac1609_4 	RXTXLostPackets 	0
scalar IntersectionExampleScenario.node[8].nic.mac1609_4 	TotalLostPackets 	0
scalar IntersectionExampleScenario.node[8].nic.mac1609_4 	DroppedPacketsInMac 	0
scalar IntersectionExampleScenario.node[8].nic.mac1609_4 	TooLittleTime 	0
scalar IntersectionExampleScenario.node[8].nic.mac1609_4 	TimesIntoBackoff 	0
scalar IntersectionExampleScenario.node[8].nic.mac1609_4 	SlotsBackoff 	0
scalar IntersectionExampleScenario.node[8].nic.mac1609_4 	NumInternalContention 	0
scalar IntersectionExampleScenario.node[8].nic.mac1609_4 	totalBusyTime 	0
scalar IntersectionExampleScenario.node[8].veinsmobility 	startTime 	15.5
scalar IntersectionExampleScenario.node[8].veinsmobility 	totalTime 	55.25
scalar IntersectionExampleScenario.node[8].veinsmobility 	stopTime 	71
scalar IntersectionExampleScenario.node[8].veinsmobility 	minSpeed 	0
scalar IntersectionExampleScenario.node[8].veinsmobility 	maxSpeed 	16.27499961853
scalar IntersectionExampleScenario.node[8].veinsmobility 	totalDistance 	548.09852708926
scalar IntersectionExampleScenario.node[8].veinsmobility 	totalCO2Emission 	152.42769943431
scalar IntersectionExampleScenario.node[11].appl 	VehicleRemoved 	0
scalar IntersectionExampleScenario.node[11].appl 	ArrivedAtDest 	1
scalar IntersectionExampleScenario.node[11].appl 	IntersectionEnterTime 	27.5
scalar IntersectionExampleScenario.node[11].appl 	IntersectionExitTime 	56.794209421671
scalar IntersectionExampleScenario.node[11].appl 	NumberOfCollisions 	0
scalar IntersectionExampleScenario.node[11].nic.phy80211p 	busyTime 	0
scalar IntersectionExampleScenario.node[11].nic.mac1609_4 	ReceivedUnicastPackets 	0
scalar IntersectionExampleScenario.node[11].nic.mac1609_4 	ReceivedBroadcasts 	0
scalar IntersectionExampleScenario.node[11].nic.mac1609_4 	SentPackets 	0
scalar IntersectionExampleScenario.node[11].nic.mac1609_4 	SNIRLostPackets 	0
scalar IntersectionExampleScenario.node[11].nic.mac1609_4 	RXTXLostPackets 	0
scalar IntersectionExampleScenario.node[11].nic.mac1609_4 	TotalLostPackets 	0
scalar IntersectionExampleScenario.node[11].nic.mac1609_4 	DroppedPacketsInMac 	0
scalar IntersectionExampleScenario.node[11].nic.mac1609_4 	TooLittleTime 	0
scalar IntersectionExampleScenario.node[11].nic.mac1609_4 	TimesIntoBackoff 	0
scalar IntersectionExampleScenario.node[11].nic.mac1609_4 	SlotsBackoff 	0
scalar IntersectionExampleScenario.node[11].nic.mac1609_4 	NumInternalContention 	0
scalar IntersectionExampleScenario.node[11].nic.mac1609_4 	totalBusyTime 	0
scalar IntersectionExampleScenario.node[11].veinsmobility 	startTime 	27.5
scalar IntersectionExampleScenario.node[11].veinsmobility 	totalTime 	45.5
scalar IntersectionExampleScenario.node[11].veinsmobility 	stopTime 	73.25
scalar IntersectionExampleScenario.node[11].veinsmobility 	minSpeed 	2.9937555789948
scalar IntersectionExampleScenario.node[11].veinsmobility 	maxSpeed 	16.27499961853
scalar IntersectionExampleScenario.node[11].veinsmobility 	totalDistance 	543.57727504965
scalar IntersectionExampleScenario.node[11].veinsmobility 	totalCO2Emission 	139.56189248882
scalar IntersectionExampleScenario.node[14].appl 	VehicleRemoved 	0
scalar IntersectionExampleScenario.node[14].appl 	ArrivedAtDest 	1
scalar IntersectionExampleScenario.node[14].appl 	IntersectionEnterTime 	33.25
scalar IntersectionExampleScenario.node[14].appl 	IntersectionExitTime 	59.117649162858
scalar IntersectionExampleScenario.node[14].appl 	NumberOfCollisions 	0
scalar IntersectionExampleScenario.node[14].nic.phy80211p 	busyTime 	0
scalar IntersectionExampleScenario.node[14].nic.mac1609_4 	ReceivedUnicastPackets 	0
scalar IntersectionExampleScenario.node[14].nic.mac1609_4 	ReceivedBroadcasts 	0
scalar IntersectionExampleScenario.node[14].nic.mac1609_4 	SentPackets 	0
scalar IntersectionExampleScenario.node[14].nic.mac1609_4 	SNIRLostPackets 	0
scalar IntersectionExampleScenario.node[14].nic.mac1609_4 	RXTXLostPackets 	0
scalar IntersectionExampleScenario.node[14].nic.mac1609_4 	TotalLostPackets 	0
scalar IntersectionExampleScenario.node[14].nic.mac1609_4 	DroppedPacketsInMac 	0
scalar IntersectionExampleScenario.node[14].nic.mac1609_4 	TooLittleTime 	0
scalar IntersectionExampleScenario.node[14].nic.mac1609_4 	TimesIntoBackoff 	0
scalar IntersectionExampleScenario.node[14].nic.mac1609_4 	SlotsBackoff 	0
scalar IntersectionExampleScenario.node[14].nic.mac1609_4 	NumInternalContention 	0
scalar IntersectionExampleScenario.node[14].nic.mac1609_4 	totalBusyTime 	0
scalar IntersectionExampleScenario.node[14].veinsmobility 	startTime 	33.25
scalar IntersectionExampleScenario.node[14].veinsmobility 	totalTime 	41.25
scalar IntersectionExampleScenario.node[14].veinsmobility 	stopTime 	74.75
scalar IntersectionExampleScenario.node[14].veinsmobility 	minSpeed 	5.6500000953674
scalar IntersectionExampleScenario.node[14].veinsmobility 	maxSpeed 	16.125
scalar IntersectionExampleScenario.node[14].veinsmobility 	totalDistance 	551.50595855713
scalar IntersectionExampleScenario.node[14].veinsmobility 	totalCO2Emission 	140.41876695417
scalar IntersectionExampleScenario.node[15].appl 	VehicleRemoved 	0
scalar IntersectionExampleScenario.node[15].appl 	ArrivedAtDest 	1
scalar IntersectionExampleScenario.node[15].appl 	IntersectionEnterTime 	41
scalar IntersectionExampleScenario.node[15].appl 	IntersectionExitTime 	63.810127719393
scalar IntersectionExampleScenario.node[15].appl 	NumberOfCollisions 	0
scalar IntersectionExampleScenario.node[15].nic.phy80211p 	busyTime 	0
scalar IntersectionExampleScenario.node[15].nic.mac1609_4 	ReceivedUnicastPackets 	0
scalar IntersectionExampleScenario.node[15].nic.mac1609_4 	ReceivedBroadcasts 	0
scalar IntersectionExampleScenario.node[15].nic.mac1609_4 	SentPackets 	0
scalar IntersectionExampleScenario.node[15].nic.mac1609_4 	SNIRLostPackets 	0
scalar IntersectionExampleScenario.node[15].nic.mac1609_4 	RXTXLostPackets 	0
scalar IntersectionExampleScenario.node[15].nic.mac1609_4 	TotalLostPackets 	0
scalar IntersectionExampleScenario.node[15].nic.mac1609_4 	DroppedPacketsInMac 	0
scalar IntersectionExampleScenario.node[15].nic.mac1609_4 	TooLittleTime 	0
scalar IntersectionExampleScenario.node[15].nic.mac1609_4 	TimesIntoBackoff 	0
scalar IntersectionExampleScenario.node[15].nic.mac1609_4 	SlotsBackoff 	0
scalar IntersectionExampleScenario.node[15].nic.mac1609_4 	NumInternalContention 	0
scalar IntersectionExampleScenario.node[15].nic.mac1609_4 	totalBusyTime 	0
scalar IntersectionExampleScenario.node[15].veinsmobility 	startTime 	41
scalar IntersectionExampleScenario.node[15].veinsmobility 	totalTime 	38.75
scalar IntersectionExampleScenario.node[15].veinsmobility 	stopTime 	80
scalar IntersectionExampleScenario.node[15].veinsmobility 	minSpeed 	5.6500000953674
scalar IntersectionExampleScenario.node[15].veinsmobility 	maxSpeed 	15.64999961853
scalar IntersectionExampleScenario.node[15].veinsmobility 	totalDistance 	553.98718261719
scalar IntersectionExampleScenario.node[15].veinsmobility 	totalCO2Emission 	118.09265819258
scalar IntersectionExampleScenario.node[17].appl 	VehicleRemoved 	0
scalar IntersectionExampleScenario.node[17].appl 	ArrivedAtDest 	1
scalar IntersectionExampleScenario.node[17].appl 	IntersectionEnterTime 	42.5
scalar IntersectionExampleScenario.node[17].appl 	IntersectionExitTime 	66.610558949906
scalar IntersectionExampleScenario.node[17].appl 	NumberOfCollisions 	0
scalar IntersectionExampleScenario.node[17].nic.phy80211p 	busyTime 	0
scalar IntersectionExampleScenario.node[17].nic.mac1609_4 	ReceivedUnicastPackets 	0
scalar IntersectionExampleScenario.node[17].nic.mac1609_4 	ReceivedBroadcasts 	0
scalar IntersectionExampleScenario.node[17].nic.mac1609_4 	SentPackets 	0
scalar IntersectionExampleScenario.node[17].nic.mac1609_4 	SNIRLostPackets 	0
scalar IntersectionExampleScenario.node[17].nic.mac1609_4 	RXTXLostPackets 	0
scalar IntersectionExampleScenario.node[17].nic.mac1609_4 	TotalLostPackets 	0
scalar IntersectionExampleScenario.node[17].nic.mac1609_4 	DroppedPacketsInMac 	0
scalar IntersectionExampleScenario.node[17].nic.mac1609_4 	TooLittleTime 	0
scalar IntersectionExampleScenario.node[17].nic.mac1609_4 	TimesIntoBackoff 	0
scalar IntersectionExampleScenario.node[17].nic.mac1609_4 	SlotsBackoff 	0
scalar IntersectionExampleScenario.node[17].nic.mac1609_4 	NumInternalContention 	0
scalar IntersectionExampleScenario.node[17].nic.mac1609_4 	totalBusyTime 	0
scalar IntersectionExampleScenario.node[17].veinsmobility 	startTime 	42.5
scalar IntersectionExampleScenario.node[17].veinsmobility 	totalTime 	39.75
scalar IntersectionExampleScenario.node[17].veinsmobility 	stopTime 	82.5
scalar IntersectionExampleScenario.node[17].veinsmobility 	minSpeed 	5.6500000953674
scalar IntersectionExampleScenario.node[17].veinsmobility 	maxSpeed 	15.64999961853
scalar IntersectionExampleScenario.node[17].veinsmobility 	totalDistance 	573.13000488281
scalar IntersectionExampleScenario.node[17].veinsmobility 	totalCO2Emission 	123.56102263971
scalar IntersectionExampleScenario.node[19].appl 	VehicleRemoved 	0
scalar IntersectionExampleScenario.node[19].appl 	ArrivedAtDest 	1
scalar IntersectionExampleScenario.node[19].appl 	IntersectionEnterTime 	43.25
scalar IntersectionExampleScenario.node[19].appl 	IntersectionExitTime 	66.776616655261
scalar IntersectionExampleScenario.node[19].appl 	NumberOfCollisions 	0
scalar IntersectionExampleScenario.node[19].nic.phy80211p 	busyTime 	0
scalar IntersectionExampleScenario.node[19].nic.mac1609_4 	ReceivedUnicastPackets 	0
scalar IntersectionExampleScenario.node[19].nic.mac1609_4 	ReceivedBroadcasts 	0
scalar IntersectionExampleScenario.node[19].nic.mac1609_4 	SentPackets 	0
scalar IntersectionExampleScenario.node[19].nic.mac1609_4 	SNIRLostPackets 	0
scalar IntersectionExampleScenario.node[19].nic.mac1609_4 	RXTXLostPackets 	0
scalar IntersectionExampleScenario.node[19].nic.mac1609_4 	TotalLostPackets 	0
scalar IntersectionExampleScenario.node[19].nic.mac1609_4 	DroppedPacketsInMac 	0
scalar IntersectionExampleScenario.node[19].nic.mac1609_4 	TooLittleTime 	0
scalar IntersectionExampleScenario.node[19].nic.mac1609_4 	TimesIntoBackoff 	0
scalar IntersectionExampleScenario.node[19].nic.mac1609_4 	SlotsBackoff 	0
scalar IntersectionExampleScenario.node[19].nic.mac1609_4 	NumInternalContention 	0
scalar IntersectionExampleScenario.node[19].nic.mac1609_4 	totalBusyTime 	0
scalar IntersectionExampleScenario.node[19].veinsmobility 	startTime 	43.25
scalar IntersectionExampleScenario.node[19].veinsmobility 	totalTime 	40.25
scalar IntersectionExampleScenario.node[19].veinsmobility 	stopTime 	83.75
scalar IntersectionExampleScenario.node[19].veinsmobility 	minSpeed 	5.6500000953674
scalar IntersectionExampleScenario.node[19].veinsmobility 	maxSpeed 	15.64999961853
scalar IntersectionExampleScenario.node[19].veinsmobility 	totalDistance 	545.94995100957
scalar IntersectionExampleScenario.node[19].veinsmobility 	totalCO2Emission 	126.67585956574
scalar IntersectionExampleScenario.node[12].appl 	VehicleRemoved 	0
scalar IntersectionExampleScenario.node[12].appl 	ArrivedAtDest 	1
scalar IntersectionExampleScenario.node[12].appl 	IntersectionEnterTime 	27.5
scalar IntersectionExampleScenario.node[12].appl 	IntersectionExitTime 	70.601767302112
scalar IntersectionExampleScenario.node[12].appl 	NumberOfCollisions 	0
scalar IntersectionExampleScenario.node[12].nic.phy80211p 	busyTime 	0
scalar IntersectionExampleScenario.node[12].nic.mac1609_4 	ReceivedUnicastPackets 	0
scalar IntersectionExampleScenario.node[12].nic.mac1609_4 	ReceivedBroadcasts 	0
scalar IntersectionExampleScenario.node[12].nic.mac1609_4 	SentPackets 	0
scalar IntersectionExampleScenario.node[12].nic.mac1609_4 	SNIRLostPackets 	0
scalar IntersectionExampleScenario.node[12].nic.mac1609_4 	RXTXLostPackets 	0
scalar IntersectionExampleScenario.node[12].nic.mac1609_4 	TotalLostPackets 	0
scalar IntersectionExampleScenario.node[12].nic.mac1609_4 	DroppedPacketsInMac 	0
scalar IntersectionExampleScenario.node[12].nic.mac1609_4 	TooLittleTime 	0
scalar IntersectionExampleScenario.node[12].nic.mac1609_4 	TimesIntoBackoff 	0
scalar IntersectionExampleScenario.node[12].nic.mac1609_4 	SlotsBackoff 	0
scalar IntersectionExampleScenario.node[12].nic.mac1609_4 	NumInternalContention 	0
scalar IntersectionExampleScenario.node[12].nic.mac1609_4 	totalBusyTime 	0
scalar IntersectionExampleScenario.node[12].veinsmobility 	startTime 	27.5
scalar IntersectionExampleScenario.node[12].veinsmobility 	totalTime 	58.75
scalar IntersectionExampleScenario.node[12].veinsmobility 	stopTime 	86.5
scalar IntersectionExampleScenario.node[12].veinsmobility 	minSpeed 	0
scalar IntersectionExampleScenario.node[12].veinsmobility 	maxSpeed 	15.712447166443
scalar IntersectionExampleScenario.node[12].veinsmobility 	totalDistance 	569.49668884277
scalar IntersectionExampleScenario.node[12].veinsmobility 	totalCO2Emission 	155.85352651544
scalar IntersectionExampleScenario.node[10].appl 	VehicleRemoved 	0
scalar IntersectionExampleScenario.node[10].appl 	ArrivedAtDest 	1
scalar IntersectionExampleScenario.node[10].appl 	IntersectionEnterTime 	25
scalar IntersectionExampleScenario.node[10].appl 	IntersectionExitTime 	68.87415828649
scalar IntersectionExampleScenario.node[10].appl 	NumberOfCollisions 	0
scalar IntersectionExampleScenario.node[10].nic.phy80211p 	busyTime 	0
scalar IntersectionExampleScenario.node[10].nic.mac1609_4 	ReceivedUnicastPackets 	0
scalar IntersectionExampleScenario.node[10].nic.mac1609_4 	ReceivedBroadcasts 	0
scalar IntersectionExampleScenario.node[10].nic.mac1609_4 	SentPackets 	0
scalar IntersectionExampleScenario.node[10].nic.mac1609_4 	SNIRLostPackets 	0
scalar IntersectionExampleScenario.node[10].nic.mac1609_4 	RXTXLostPackets 	0
scalar IntersectionExampleScenario.node[10].nic.mac1609_4 	TotalLostPackets 	0
scalar IntersectionExampleScenario.node[10].nic.mac1609_4 	DroppedPacketsInMac 	0
scalar IntersectionExampleScenario.node[10].nic.mac1609_4 	TooLittleTime 	0
scalar IntersectionExampleScenario.node[10].nic.mac1609_4 	TimesIntoBackoff 	0
scalar IntersectionExampleScenario.node[10].nic.mac1609_4 	SlotsBackoff 	0
scalar IntersectionExampleScenario.node[10].nic.mac1609_4 	NumInternalContention 	0
scalar IntersectionExampleScenario.node[10].nic.mac1609_4 	totalBusyTime 	0
scalar IntersectionExampleScenario.node[10].veinsmobility 	startTime 	25
scalar IntersectionExampleScenario.node[10].veinsmobility 	totalTime 	61.5
scalar IntersectionExampleScenario.node[10].veinsmobility 	stopTime 	86.75
scalar IntersectionExampleScenario.node[10].veinsmobility 	minSpeed 	0
scalar IntersectionExampleScenario.node[10].veinsmobility 	maxSpeed 	14.625
scalar IntersectionExampleScenario.node[10].veinsmobility 	totalDistance 	545.2006750241
scalar IntersectionExampleScenario.node[10].veinsmobility 	totalCO2Emission 	145.29439432828
scalar IntersectionExampleScenario.node[13].appl 	VehicleRemoved 	0
scalar IntersectionExampleScenario.node[13].appl 	ArrivedAtDest 	1
scalar IntersectionExampleScenario.node[13].appl 	IntersectionEnterTime 	30.75
scalar IntersectionExampleScenario.node[13].appl 	IntersectionExitTime 	72.777624769311
scalar IntersectionExampleScenario.node[13].appl 	NumberOfCollisions 	0
scalar IntersectionExampleScenario.node[13].nic.phy80211p 	busyTime 	0
scalar IntersectionExampleScenario.node[13].nic.mac1609_4 	ReceivedUnicastPackets 	0
scalar IntersectionExampleScenario.node[13].nic.mac1609_4 	ReceivedBroadcasts 	0
scalar IntersectionExampleScenario.node[13].nic.mac1609_4 	SentPackets 	0
scalar IntersectionExampleScenario.node[13].nic.mac1609_4 	SNIRLostPackets 	0
scalar IntersectionExampleScenario.node[13].nic.mac1609_4 	RXTXLostPackets 	0
scalar IntersectionExampleScenario.node[13].nic.mac1609_4 	TotalLostPackets 	0
scalar IntersectionExampleScenario.node[13].nic.mac1609_4 	DroppedPacketsInMac 	0
scalar IntersectionExampleScenario.node[13].nic.mac1609_4 	TooLittleTime 	0
scalar IntersectionExampleScenario.node[13].nic.mac1609_4 	TimesIntoBackoff 	0
scalar IntersectionExampleScenario.node[13].nic.mac1609_4 	SlotsBackoff 	0
scalar IntersectionExampleScenario.node[13].nic.mac1609_4 	NumInternalContention 	0
scalar IntersectionExampleScenario.node[13].nic.mac1609_4 	totalBusyTime 	0
scalar IntersectionExampleScenario.node[13].veinsmobility 	startTime 	30.75
scalar IntersectionExampleScenario.node[13].veinsmobility 	totalTime 	58.25
scalar IntersectionExampleScenario.node[13].veinsmobility 	stopTime 	89.25
scalar IntersectionExampleScenario.node[13].veinsmobility 	minSpeed 	0
scalar IntersectionExampleScenario.node[13].veinsmobility 	maxSpeed 	15.424119949341
scalar IntersectionExampleScenario.node[13].veinsmobility 	totalDistance 	572.91947937012
scalar IntersectionExampleScenario.node[13].veinsmobility 	totalCO2Emission 	148.56505112768
scalar IntersectionExampleScenario.node[26].appl 	VehicleRemoved 	0
scalar IntersectionExampleScenario.node[26].appl 	ArrivedAtDest 	1
scalar IntersectionExampleScenario.node[26].appl 	IntersectionEnterTime 	52.75
scalar IntersectionExampleScenario.node[26].appl 	IntersectionExitTime 	75.527604739618
scalar IntersectionExampleScenario.node[26].appl 	NumberOfCollisions 	0
scalar IntersectionExampleScenario.node[26].nic.phy80211p 	busyTime 	0
scalar IntersectionExampleScenario.node[26].nic.mac1609_4 	ReceivedUnicastPackets 	0
scalar IntersectionExampleScenario.node[26].nic.mac1609_4 	ReceivedBroadcasts 	0
scalar IntersectionExampleScenario.node[26].nic.mac1609_4 	SentPackets 	0
scalar IntersectionExampleScenario.node[26].nic.mac1609_4 	SNIRLostPackets 	0
scalar IntersectionExampleScenario.node[26].nic.mac1609_4 	RXTXLostPackets 	0
scalar IntersectionExampleScenario.node[26].nic.mac1609_4 	TotalLostPackets 	0
scalar IntersectionExampleScenario.node[26].nic.mac1609_4 	DroppedPacketsInMac 	0
scalar IntersectionExampleScenario.node[26].nic.mac1609_4 	TooLittleTime 	0
scalar IntersectionExampleScenario.node[26].nic.mac1609_4 	TimesIntoBackoff 	0
scalar IntersectionExampleScenario.node[26].nic.mac1609_4 	SlotsBackoff 	0
scalar IntersectionExampleScenario.node[26].nic.mac1609_4 	NumInternalContention 	0
scalar IntersectionExampleScenario.node[26].nic.mac1609_4 	totalBusyTime 	0
scalar IntersectionExampleScenario.node[26].veinsmobility 	startTime 	52.75
scalar IntersectionExampleScenario.node[26].veinsmobility 	totalTime 	39
scalar IntersectionExampleScenario.node[26].veinsmobility 	stopTime 	92
scalar IntersectionExampleScenario.node[26].veinsmobility 	minSpeed 	5.6500000953674
scalar IntersectionExampleScenario.node[26].veinsmobility 	maxSpeed 	16.27499961853
scalar IntersectionExampleScenario.node[26].veinsmobility 	totalDistance 	511.73478726689
scalar IntersectionExampleScenario.node[26].veinsmobility 	totalCO2Emission 	140.05842332296
scalar IntersectionExampleScenario.node[16].appl 	VehicleRemoved 	0
scalar IntersectionExampleScenario.node[16].appl 	ArrivedAtDest 	1
scalar IntersectionExampleScenario.node[16].appl 	IntersectionEnterTime 	42
scalar IntersectionExampleScenario.node[16].appl 	IntersectionExitTime 	78.345241249859
scalar IntersectionExampleScenario.node[16].appl 	NumberOfCollisions 	0
scalar IntersectionExampleScenario.node[16].nic.phy80211p 	busyTime 	0
scalar IntersectionExampleScenario.node[16].nic.mac1609_4 	ReceivedUnicastPackets 	0
scalar IntersectionExampleScenario.node[16].nic.mac1609_4 	ReceivedBroadcasts 	0
scalar IntersectionExampleScenario.node[16].nic.mac1609_4 	SentPackets 	0
scalar IntersectionExampleScenario.node[16].nic.mac1609_4 	SNIRLostPackets 	0
scalar IntersectionExampleScenario.node[16].nic.mac1609_4 	RXTXLostPackets 	0
scalar IntersectionExampleScenario.node[16].nic.mac1609_4 	TotalLostPackets 	0
scalar IntersectionExampleScenario.node[16].nic.mac1609_4 	DroppedPacketsInMac 	0
scalar IntersectionExampleScenario.node[16].nic.mac1609_4 	TooLittleTime 	0
scalar IntersectionExampleScenario.node[16].nic.mac1609_4 	TimesIntoBackoff 	0
scalar IntersectionExampleScenario.node[16].nic.mac1609_4 	SlotsBackoff 	0
scalar IntersectionExampleScenario.node[16].nic.mac1609_4 	NumInternalContention 	0
scalar IntersectionExampleScenario.node[16].nic.mac1609_4 	totalBusyTime 	0
scalar IntersectionExampleScenario.node[16].veinsmobility 	startTime 	42
scalar IntersectionExampleScenario.node[16].veinsmobility 	totalTime 	52.75
scalar IntersectionExampleScenario.node[16].veinsmobility 	stopTime 	95
scalar IntersectionExampleScenario.node[16].veinsmobility 	minSpeed 	0
scalar IntersectionExampleScenario.node[16].veinsmobility 	maxSpeed 	15.02499961853
scalar IntersectionExampleScenario.node[16].veinsmobility 	totalDistance 	551.7727432251
scalar IntersectionExampleScenario.node[16].veinsmobility 	totalCO2Emission 	140.67364085034
scalar IntersectionExampleScenario.node[18].appl 	VehicleRemoved 	0
scalar IntersectionExampleScenario.node[18].appl 	ArrivedAtDest 	1
scalar IntersectionExampleScenario.node[18].appl 	IntersectionEnterTime 	43
scalar IntersectionExampleScenario.node[18].appl 	IntersectionExitTime 	79.115818343562
scalar IntersectionExampleScenario.node[18].appl 	NumberOfCollisions 	0
scalar IntersectionExampleScenario.node[18].nic.phy80211p 	busyTime 	0
scalar IntersectionExampleScenario.node[18].nic.mac1609_4 	ReceivedUnicastPackets 	0
scalar IntersectionExampleScenario.node[18].nic.mac1609_4 	ReceivedBroadcasts 	0
scalar IntersectionExampleScenario.node[18].nic.mac1609_4 	SentPackets 	0
scalar IntersectionExampleScenario.node[18].nic.mac1609_4 	SNIRLostPackets 	0
scalar IntersectionExampleScenario.node[18].nic.mac1609_4 	RXTXLostPackets 	0
scalar IntersectionExampleScenario.node[18].nic.mac1609_4 	TotalLostPackets 	0
scalar IntersectionExampleScenario.node[18].nic.mac1609_4 	DroppedPacketsInMac 	0
scalar IntersectionExampleScenario.node[18].nic.mac1609_4 	TooLittleTime 	0
scalar IntersectionExampleScenario.node[18].nic.mac1609_4 	TimesIntoBackoff 	0
scalar IntersectionExampleScenario.node[18].nic.mac1609_4 	SlotsBackoff 	0
scalar IntersectionExampleScenario.node[18].nic.mac1609_4 	NumInternalContention 	0
scalar IntersectionExampleScenario.node[18].nic.mac1609_4 	totalBusyTime 	0
scalar IntersectionExampleScenario.node[18].veinsmobility 	startTime 	43
scalar IntersectionExampleScenario.node[18].veinsmobility 	totalTime 	52.75
scalar IntersectionExampleScenario.node[18].veinsmobility 	stopTime 	96
scalar IntersectionExampleScenario.node[18].veinsmobility 	minSpeed 	0
scalar IntersectionExampleScenario.node[18].veinsmobility 	maxSpeed 	15.875
scalar IntersectionExampleScenario.node[18].veinsmobility 	totalDistance 	568.50953635813
scalar IntersectionExampleScenario.node[18].veinsmobility 	totalCO2Emission 	148.34848120053
scalar IntersectionExampleScenario.node[24].appl 	VehicleRemoved 	0
scalar IntersectionExampleScenario.node[24].appl 	ArrivedAtDest 	1
scalar IntersectionExampleScenario.node[24].appl 	IntersectionEnterTime 	52.25
scalar IntersectionExampleScenario.node[24].appl 	IntersectionExitTime 	81.27130964151
scalar IntersectionExampleScenario.node[24].appl 	NumberOfCollisions 	0
scalar IntersectionExampleScenario.node[24].nic.phy80211p 	busyTime 	0
scalar IntersectionExampleScenario.node[24].nic.mac1609_4 	ReceivedUnicastPackets 	0
scalar IntersectionExampleScenario.node[24].nic.mac1609_4 	ReceivedBroadcasts 	0
scalar IntersectionExampleScenario.node[24].nic.mac1609_4 	SentPackets 	0
scalar IntersectionExampleScenario.node[24].nic.mac1609_4 	SNIRLostPackets 	0
scalar IntersectionExampleScenario.node[24].nic.mac1609_4 	RXTXLostPackets 	0
scalar IntersectionExampleScenario.node[24].nic.mac1609_4 	TotalLostPackets 	0
scalar IntersectionExampleScenario.node[24].nic.mac1609_4 	DroppedPacketsInMac 	0
scalar IntersectionExampleScenario.node[24].nic.mac1609_4 	TooLittleTime 	0
scalar IntersectionExampleScenario.node[24].nic.mac1609_4 	TimesIntoBackoff 	0
scalar IntersectionExampleScenario.node[24].nic.mac1609_4 	SlotsBackoff 	0
scalar IntersectionExampleScenario.node[24].nic.mac1609_4 	NumInternalContention 	0
scalar IntersectionExampleScenario.node[24].nic.mac1609_4 	totalBusyTime 	0
scalar IntersectionExampleScenario.node[24].veinsmobility 	startTime 	52.25
scalar IntersectionExampleScenario.node[24].veinsmobility 	totalTime 	45.5
scalar IntersectionExampleScenario.node[24].veinsmobility 	stopTime 	98
scalar IntersectionExampleScenario.node[24].veinsmobility 	minSpeed 	3.9157366752625
scalar IntersectionExampleScenario.node[24].veinsmobility 	maxSpeed 	15.375
scalar IntersectionExampleScenario.node[24].veinsmobility 	totalDistance 	550.89196618163
scalar IntersectionExampleScenario.node[24].veinsmobility 	totalCO2Emission 	134.79065230491
scalar IntersectionExampleScenario.node[27].appl 	VehicleRemoved 	0
scalar IntersectionExampleScenario.node[27].appl 	ArrivedAtDest 	1
scalar IntersectionExampleScenario.node[27].appl 	IntersectionEnterTime 	53.25
scalar IntersectionExampleScenario.node[27].appl 	IntersectionExitTime 	83.032972315792
scalar IntersectionExampleScenario.node[27].appl 	NumberOfCollisions 	0
scalar IntersectionExampleScenario.node[27].nic.phy80211p 	busyTime 	0
scalar IntersectionExampleScenario.node[27].nic.mac1609_4 	ReceivedUnicastPackets 	0
scalar IntersectionExampleScenario.node[27].nic.mac1609_4 	ReceivedBroadcasts 	0
scalar IntersectionExampleScenario.node[27].nic.mac1609_4 	SentPackets 	0
scalar IntersectionExampleScenario.node[27].nic.mac1609_4 	SNIRLostPackets 	0
scalar IntersectionExampleScenario.node[27].nic.mac1609_4 	RXTXLostPackets 	0
scalar IntersectionExampleScenario.node[27].nic.mac1609_4 	TotalLostPackets 	0
scalar IntersectionExampleScenario.node[27].nic.mac1609_4 	DroppedPacketsInMac 	0
scalar IntersectionExampleScenario.node[27].nic.mac1609_4 	TooLittleTime 	0
scalar IntersectionExampleScenario.node[27].nic.mac1609_4 	TimesIntoBackoff 	0
scalar IntersectionExampleScenario.node[27].nic.mac1609_4 	SlotsBackoff 	0
scalar IntersectionExampleScenario.node[27].nic.mac1609_4 	NumInternalContention 	0
scalar IntersectionExampleScenario.node[27].nic.mac1609_4 	totalBusyTime 	0
scalar IntersectionExampleScenario.node[27].veinsmobility 	startTime 	53.25
scalar IntersectionExampleScenario.node[27].veinsmobility 	totalTime 	45.75
scalar IntersectionExampleScenario.node[27].veinsmobility 	stopTime 	99.25
scalar IntersectionExampleScenario.node[27].veinsmobility 	minSpeed 	3.3186218738556
scalar IntersectionExampleScenario.node[27].veinsmobility 	maxSpeed 	15.377561569214
scalar IntersectionExampleScenario.node[27].veinsmobility 	totalDistance 	575.87358856201
scalar IntersectionExampleScenario.node[27].veinsmobility 	totalCO2Emission 	143.21402750966
scalar IntersectionExampleScenario.node[30].appl 	VehicleRemoved 	0
scalar IntersectionExampleScenario.node[30].appl 	ArrivedAtDest 	1
scalar IntersectionExampleScenario.node[30].appl 	IntersectionEnterTime 	61
scalar IntersectionExampleScenario.node[30].appl 	IntersectionExitTime 	85.784679901903
scalar IntersectionExampleScenario.node[30].appl 	NumberOfCollisions 	0
scalar IntersectionExampleScenario.node[30].nic.phy80211p 	busyTime 	0
scalar IntersectionExampleScenario.node[30].nic.mac1609_4 	ReceivedUnicastPackets 	0
scalar IntersectionExampleScenario.node[30].nic.mac1609_4 	ReceivedBroadcasts 	0
scalar IntersectionExampleScenario.node[30].nic.mac1609_4 	SentPackets 	0
scalar IntersectionExampleScenario.node[30].nic.mac1609_4 	SNIRLostPackets 	0
scalar IntersectionExampleScenario.node[30].nic.mac1609_4 	RXTXLostPackets 	0
scalar IntersectionExampleScenario.node[30].nic.mac1609_4 	TotalLostPackets 	0
scalar IntersectionExampleScenario.node[30].nic.mac1609_4 	DroppedPacketsInMac 	0
scalar IntersectionExampleScenario.node[30].nic.mac1609_4 	TooLittleTime 	0
scalar IntersectionExampleScenario.node[30].nic.mac1609_4 	TimesIntoBackoff 	0
scalar IntersectionExampleScenario.node[30].nic.mac1609_4 	SlotsBackoff 	0
scalar IntersectionExampleScenario.node[30].nic.mac1609_4 	NumInternalContention 	0
scalar IntersectionExampleScenario.node[30].nic.mac1609_4 	totalBusyTime 	0
scalar IntersectionExampleScenario.node[30].veinsmobility 	startTime 	61
scalar IntersectionExampleScenario.node[30].veinsmobility 	totalTime 	41.5
scalar IntersectionExampleScenario.node[30].veinsmobility 	stopTime 	102.75
scalar IntersectionExampleScenario.node[30].veinsmobility 	minSpeed 	5.6500000953674
scalar IntersectionExampleScenario.node[30].veinsmobility 	maxSpeed 	15.875
scalar IntersectionExampleScenario.node[30].veinsmobility 	totalDistance 	546.16511430727
scalar IntersectionExampleScenario.node[30].veinsmobility 	totalCO2Emission 	135.07323551776
scalar IntersectionExampleScenario.node[21].appl 	VehicleRemoved 	0
scalar IntersectionExampleScenario.node[21].appl 	ArrivedAtDest 	1
scalar IntersectionExampleScenario.node[21].appl 	IntersectionEnterTime 	50
scalar IntersectionExampleScenario.node[21].appl 	IntersectionExitTime 	86.543858987774
scalar IntersectionExampleScenario.node[21].appl 	NumberOfCollisions 	0
scalar IntersectionExampleScenario.node[21].nic.phy80211p 	busyTime 	0
scalar IntersectionExampleScenario.node[21].nic.mac1609_4 	ReceivedUnicastPackets 	0
scalar IntersectionExampleScenario.node[21].nic.mac1609_4 	ReceivedBroadcasts 	0
scalar IntersectionExampleScenario.node[21].nic.mac1609_4 	SentPackets 	0
scalar IntersectionExampleScenario.node[21].nic.mac1609_4 	SNIRLostPackets 	0
scalar IntersectionExampleScenario.node[21].nic.mac1609_4 	RXTXLostPackets 	0
scalar IntersectionExampleScenario.node[21].nic.mac1609_4 	TotalLostPackets 	0
scalar IntersectionExampleScenario.node[21].nic.mac1609_4 	DroppedPacketsInMac 	0
scalar IntersectionExampleScenario.node[21].nic.mac1609_4 	TooLittleTime 	0
scalar IntersectionExampleScenario.node[21].nic.mac1609_4 	TimesIntoBackoff 	0
scalar IntersectionExampleScenario.node[21].nic.mac1609_4 	SlotsBackoff 	0
scalar IntersectionExampleScenario.node[21].nic.mac1609_4 	NumInternalContention 	0
scalar IntersectionExampleScenario.node[21].nic.mac1609_4 	totalBusyTime 	0
scalar IntersectionExampleScenario.node[21].veinsmobility 	startTime 	50
scalar IntersectionExampleScenario.node[21].veinsmobility 	totalTime 	53
scalar IntersectionExampleScenario.node[21].veinsmobility 	stopTime 	103.25
scalar IntersectionExampleScenario.node[21].veinsmobility 	minSpeed 	0
scalar IntersectionExampleScenario.node[21].veinsmobility 	maxSpeed 	15.875
scalar IntersectionExampleScenario.node[21].veinsmobility 	totalDistance 	544.83440305144
scalar IntersectionExampleScenario.node[21].veinsmobility 	totalCO2Emission 	147.16470034678
scalar IntersectionExampleScenario.node[20].appl 	VehicleRemoved 	0
scalar IntersectionExampleScenario.node[20].appl 	ArrivedAtDest 	1
scalar IntersectionExampleScenario.node[20].appl 	IntersectionEnterTime 	49.5
scalar IntersectionExampleScenario.node[20].appl 	IntersectionExitTime 	87.832775252755
scalar IntersectionExampleScenario.node[20].appl 	NumberOfCollisions 	0
scalar IntersectionExampleScenario.node[20].nic.phy80211p 	busyTime 	0
scalar IntersectionExampleScenario.node[20].nic.mac1609_4 	ReceivedUnicastPackets 	0
scalar IntersectionExampleScenario.node[20].nic.mac1609_4 	ReceivedBroadcasts 	0
scalar IntersectionExampleScenario.node[20].nic.mac1609_4 	SentPackets 	0
scalar IntersectionExampleScenario.node[20].nic.mac1609_4 	SNIRLostPackets 	0
scalar IntersectionExampleScenario.node[20].nic.mac1609_4 	RXTXLostPackets 	0
scalar IntersectionExampleScenario.node[20].nic.mac1609_4 	TotalLostPackets 	0
scalar IntersectionExampleScenario.node[20].nic.mac1609_4 	DroppedPacketsInMac 	0
scalar IntersectionExampleScenario.node[20].nic.mac1609_4 	TooLittleTime 	0
scalar IntersectionExampleScenario.node[20].nic.mac1609_4 	TimesIntoBackoff 	0
scalar IntersectionExampleScenario.node[20].nic.mac1609_4 	SlotsBackoff 	0
scalar IntersectionExampleScenario.node[20].nic.mac1609_4 	NumInternalContention 	0
scalar IntersectionExampleScenario.node[20].nic.mac1609_4 	totalBusyTime 	0
scalar IntersectionExampleScenario.node[20].veinsmobility 	startTime 	49.5
scalar IntersectionExampleScenario.node[20].veinsmobility 	totalTime 	55
scalar IntersectionExampleScenario.node[20].veinsmobility 	stopTime 	104.75
scalar IntersectionExampleScenario.node[20].veinsmobility 	minSpeed 	0
scalar IntersectionExampleScenario.node[20].veinsmobility 	maxSpeed 	15.216687202454
scalar IntersectionExampleScenario.node[20].veinsmobility 	totalDistance 	552.34922027588
scalar IntersectionExampleScenario.node[20].veinsmobility 	totalCO2Emission 	144.83922255776
scalar IntersectionExampleScenario.node[23].appl 	VehicleRemoved 	0
scalar IntersectionExampleScenario.node[23].appl 	ArrivedAtDest 	1
scalar IntersectionExampleScenario.node[23].appl 	IntersectionEnterTime 	51.75
scalar IntersectionExampleScenario.node[23].appl 	IntersectionExitTime 	90.026829468494
scalar IntersectionExampleScenario.node[23].appl 	NumberOfCollisions 	0
scalar IntersectionExampleScenario.node[23].nic.phy80211p 	busyTime 	0
scalar IntersectionExampleScenario.node[23].nic.mac1609_4 	ReceivedUnicastPackets 	0
scalar IntersectionExampleScenario.node[23].nic.mac1609_4 	ReceivedBroadcasts 	0
scalar IntersectionExampleScenario.node[23].nic.mac1609_4 	SentPackets 	0
scalar IntersectionExampleScenario.node[23].nic.mac1609_4 	SNIRLostPackets 	0
scalar IntersectionExampleScenario.node[23].nic.mac1609_4 	RXTXLostPackets 	0
scalar IntersectionExampleScenario.node[23].nic.mac1609_4 	TotalLostPackets 	0
scalar IntersectionExampleScenario.node[23].nic.mac1609_4 	DroppedPacketsInMac 	0
scalar IntersectionExampleScenario.node[23].nic.mac1609_4 	TooLittleTime 	0
scalar IntersectionExampleScenario.node[23].nic.mac1609_4 	TimesIntoBackoff 	0
scalar IntersectionExampleScenario.node[23].nic.mac1609_4 	SlotsBackoff 	0
scalar IntersectionExampleScenario.node[23].nic.mac1609_4 	NumInternalContention 	0
scalar IntersectionExampleScenario.node[23].nic.mac1609_4 	totalBusyTime 	0
scalar IntersectionExampleScenario.node[23].veinsmobility 	startTime 	51.75
scalar IntersectionExampleScenario.node[23].veinsmobility 	totalTime 	55
scalar IntersectionExampleScenario.node[23].veinsmobility 	stopTime 	107
scalar IntersectionExampleScenario.node[23].veinsmobility 	minSpeed 	0
scalar IntersectionExampleScenario.node[23].veinsmobility 	maxSpeed 	15.02499961853
scalar IntersectionExampleScenario.node[23].veinsmobility 	totalDistance 	570.96868133545
scalar IntersectionExampleScenario.node[23].veinsmobility 	totalCO2Emission 	143.48878232907
scalar IntersectionExampleScenario.node[29].appl 	VehicleRemoved 	0
scalar IntersectionExampleScenario.node[29].appl 	ArrivedAtDest 	1
scalar IntersectionExampleScenario.node[29].appl 	IntersectionEnterTime 	60.5
scalar IntersectionExampleScenario.node[29].appl 	IntersectionExitTime 	91.323907169484
scalar IntersectionExampleScenario.node[29].appl 	NumberOfCollisions 	0
scalar IntersectionExampleScenario.node[29].nic.phy80211p 	busyTime 	0
scalar IntersectionExampleScenario.node[29].nic.mac1609_4 	ReceivedUnicastPackets 	0
scalar IntersectionExampleScenario.node[29].nic.mac1609_4 	ReceivedBroadcasts 	0
scalar IntersectionExampleScenario.node[29].nic.mac1609_4 	SentPackets 	0
scalar IntersectionExampleScenario.node[29].nic.mac1609_4 	SNIRLostPackets 	0
scalar IntersectionExampleScenario.node[29].nic.mac1609_4 	RXTXLostPackets 	0
scalar IntersectionExampleScenario.node[29].nic.mac1609_4 	TotalLostPackets 	0
scalar IntersectionExampleScenario.node[29].nic.mac1609_4 	DroppedPacketsInMac 	0
scalar IntersectionExampleScenario.node[29].nic.mac1609_4 	TooLittleTime 	0
scalar IntersectionExampleScenario.node[29].nic.mac1609_4 	TimesIntoBackoff 	0
scalar IntersectionExampleScenario.node[29].nic.mac1609_4 	SlotsBackoff 	0
scalar IntersectionExampleScenario.node[29].nic.mac1609_4 	NumInternalContention 	0
scalar IntersectionExampleScenario.node[29].nic.mac1609_4 	totalBusyTime 	0
scalar IntersectionExampleScenario.node[29].veinsmobility 	startTime 	60.5
scalar IntersectionExampleScenario.node[29].veinsmobility 	totalTime 	46.5
scalar IntersectionExampleScenario.node[29].veinsmobility 	stopTime 	107.25
scalar IntersectionExampleScenario.node[29].veinsmobility 	minSpeed 	3.4109764099121
scalar IntersectionExampleScenario.node[29].veinsmobility 	maxSpeed 	16.004396438599
scalar IntersectionExampleScenario.node[29].veinsmobility 	totalDistance 	550.84112786181
scalar IntersectionExampleScenario.node[29].veinsmobility 	totalCO2Emission 	142.12912133239
scalar IntersectionExampleScenario.node[28].appl 	VehicleRemoved 	0
scalar IntersectionExampleScenario.node[28].appl 	ArrivedAtDest 	1
scalar IntersectionExampleScenario.node[28].appl 	IntersectionEnterTime 	53.25
scalar IntersectionExampleScenario.node[28].appl 	IntersectionExitTime 	89.576055270591
scalar IntersectionExampleScenario.node[28].appl 	NumberOfCollisions 	0
scalar IntersectionExampleScenario.node[28].nic.phy80211p 	busyTime 	0
scalar IntersectionExampleScenario.node[28].nic.mac1609_4 	ReceivedUnicastPackets 	0
scalar IntersectionExampleScenario.node[28].nic.mac1609_4 	ReceivedBroadcasts 	0
scalar IntersectionExampleScenario.node[28].nic.mac1609_4 	SentPackets 	0
scalar IntersectionExampleScenario.node[28].nic.mac1609_4 	SNIRLostPackets 	0
scalar IntersectionExampleScenario.node[28].nic.mac1609_4 	RXTXLostPackets 	0
scalar IntersectionExampleScenario.node[28].nic.mac1609_4 	TotalLostPackets 	0
scalar IntersectionExampleScenario.node[28].nic.mac1609_4 	DroppedPacketsInMac 	0
scalar IntersectionExampleScenario.node[28].nic.mac1609_4 	TooLittleTime 	0
scalar IntersectionExampleScenario.node[28].nic.mac1609_4 	TimesIntoBackoff 	0
scalar IntersectionExampleScenario.node[28].nic.mac1609_4 	SlotsBackoff 	0
scalar IntersectionExampleScenario.node[28].nic.mac1609_4 	NumInternalContention 	0
scalar IntersectionExampleScenario.node[28].nic.mac1609_4 	totalBusyTime 	0
scalar IntersectionExampleScenario.node[28].veinsmobility 	startTime 	53.25
scalar IntersectionExampleScenario.node[28].veinsmobility 	totalTime 	54
scalar IntersectionExampleScenario.node[28].veinsmobility 	stopTime 	107.5
scalar IntersectionExampleScenario.node[28].veinsmobility 	minSpeed 	0
scalar IntersectionExampleScenario.node[28].veinsmobility 	maxSpeed 	14.625
scalar IntersectionExampleScenario.node[28].veinsmobility 	totalDistance 	557.47582059629
scalar IntersectionExampleScenario.node[28].veinsmobility 	totalCO2Emission 	136.47878959876
scalar IntersectionExampleScenario.node[31].appl 	VehicleRemoved 	0
scalar IntersectionExampleScenario.node[31].appl 	ArrivedAtDest 	1
scalar IntersectionExampleScenario.node[31].appl 	IntersectionEnterTime 	68
scalar IntersectionExampleScenario.node[31].appl 	IntersectionExitTime 	92.776595921372
scalar IntersectionExampleScenario.node[31].appl 	NumberOfCollisions 	0
scalar IntersectionExampleScenario.node[31].nic.phy80211p 	busyTime 	0
scalar IntersectionExampleScenario.node[31].nic.mac1609_4 	ReceivedUnicastPackets 	0
scalar IntersectionExampleScenario.node[31].nic.mac1609_4 	ReceivedBroadcasts 	0
scalar IntersectionExampleScenario.node[31].nic.mac1609_4 	SentPackets 	0
scalar IntersectionExampleScenario.node[31].nic.mac1609_4 	SNIRLostPackets 	0
scalar IntersectionExampleScenario.node[31].nic.mac1609_4 	RXTXLostPackets 	0
scalar IntersectionExampleScenario.node[31].nic.mac1609_4 	TotalLostPackets 	0
scalar IntersectionExampleScenario.node[31].nic.mac1609_4 	DroppedPacketsInMac 	0
scalar IntersectionExampleScenario.node[31].nic.mac1609_4 	TooLittleTime 	0
scalar IntersectionExampleScenario.node[31].nic.mac1609_4 	TimesIntoBackoff 	0
scalar IntersectionExampleScenario.node[31].nic.mac1609_4 	SlotsBackoff 	0
scalar IntersectionExampleScenario.node[31].nic.mac1609_4 	NumInternalContention 	0
scalar IntersectionExampleScenario.node[31].nic.mac1609_4 	totalBusyTime 	0
scalar IntersectionExampleScenario.node[31].veinsmobility 	startTime 	68
scalar IntersectionExampleScenario.node[31].veinsmobility 	totalTime 	41
scalar IntersectionExampleScenario.node[31].veinsmobility 	stopTime 	109.25
scalar IntersectionExampleScenario.node[31].veinsmobility 	minSpeed 	4.4408373832703
scalar IntersectionExampleScenario.node[31].veinsmobility 	maxSpeed 	15.64999961853
scalar IntersectionExampleScenario.node[31].veinsmobility 	totalDistance 	543.24307748891
scalar IntersectionExampleScenario.node[31].veinsmobility 	totalCO2Emission 	147.15400334594
scalar IntersectionExampleScenario.node[32].appl 	VehicleRemoved 	0
scalar IntersectionExampleScenario.node[32].appl 	ArrivedAtDest 	1
scalar IntersectionExampleScenario.node[32].appl 	IntersectionEnterTime 	68.5
scalar IntersectionExampleScenario.node[32].appl 	IntersectionExitTime 	93.564357395895
scalar IntersectionExampleScenario.node[32].appl 	NumberOfCollisions 	0
scalar IntersectionExampleScenario.node[32].nic.phy80211p 	busyTime 	0
scalar IntersectionExampleScenario.node[32].nic.mac1609_4 	ReceivedUnicastPackets 	0
scalar IntersectionExampleScenario.node[32].nic.mac1609_4 	ReceivedBroadcasts 	0
scalar IntersectionExampleScenario.node[32].nic.mac1609_4 	SentPackets 	0
scalar IntersectionExampleScenario.node[32].nic.mac1609_4 	SNIRLostPackets 	0
scalar IntersectionExampleScenario.node[32].nic.mac1609_4 	RXTXLostPackets 	0
scalar IntersectionExampleScenario.node[32].nic.mac1609_4 	TotalLostPackets 	0
scalar IntersectionExampleScenario.node[32].nic.mac1609_4 	DroppedPacketsInMac 	0
scalar IntersectionExampleScenario.node[32].nic.mac1609_4 	TooLittleTime 	0
scalar IntersectionExampleScenario.node[32].nic.mac1609_4 	TimesIntoBackoff 	0
scalar IntersectionExampleScenario.node[32].nic.mac1609_4 	SlotsBackoff 	0
scalar IntersectionExampleScenario.node[32].nic.mac1609_4 	NumInternalContention 	0
scalar IntersectionExampleScenario.node[32].nic.mac1609_4 	totalBusyTime 	0
scalar IntersectionExampleScenario.node[32].veinsmobility 	startTime 	68.5
scalar IntersectionExampleScenario.node[32].veinsmobility 	totalTime 	41.25
scalar IntersectionExampleScenario.node[32].veinsmobility 	stopTime 	110
scalar IntersectionExampleScenario.node[32].veinsmobility 	minSpeed 	5.6500000953674
scalar IntersectionExampleScenario.node[32].veinsmobility 	maxSpeed 	15.5
scalar IntersectionExampleScenario.node[32].veinsmobility 	totalDistance 	552.44166564941
scalar IntersectionExampleScenario.node[32].veinsmobility 	totalCO2Emission 	129.57469254713
scalar IntersectionExampleScenario.node[33].appl 	VehicleRemoved 	0
scalar IntersectionExampleScenario.node[33].appl 	ArrivedAtDest 	1
scalar IntersectionExampleScenario.node[33].appl 	IntersectionEnterTime 	71.5
scalar IntersectionExampleScenario.node[33].appl 	IntersectionExitTime 	95.53422973369
scalar IntersectionExampleScenario.node[33].appl 	NumberOfCollisions 	0
scalar IntersectionExampleScenario.node[33].nic.phy80211p 	busyTime 	0
scalar IntersectionExampleScenario.node[33].nic.mac1609_4 	ReceivedUnicastPackets 	0
scalar IntersectionExampleScenario.node[33].nic.mac1609_4 	ReceivedBroadcasts 	0
scalar IntersectionExampleScenario.node[33].nic.mac1609_4 	SentPackets 	0
scalar IntersectionExampleScenario.node[33].nic.mac1609_4 	SNIRLostPackets 	0
scalar IntersectionExampleScenario.node[33].nic.mac1609_4 	RXTXLostPackets 	0
scalar IntersectionExampleScenario.node[33].nic.mac1609_4 	TotalLostPackets 	0
scalar IntersectionExampleScenario.node[33].nic.mac1609_4 	DroppedPacketsInMac 	0
scalar IntersectionExampleScenario.node[33].nic.mac1609_4 	TooLittleTime 	0
scalar IntersectionExampleScenario.node[33].nic.mac1609_4 	TimesIntoBackoff 	0
scalar IntersectionExampleScenario.node[33].nic.mac1609_4 	SlotsBackoff 	0
scalar IntersectionExampleScenario.node[33].nic.mac1609_4 	NumInternalContention 	0
scalar IntersectionExampleScenario.node[33].nic.mac1609_4 	totalBusyTime 	0
scalar IntersectionExampleScenario.node[33].veinsmobility 	startTime 	71.5
scalar IntersectionExampleScenario.node[33].veinsmobility 	totalTime 	40
scalar IntersectionExampleScenario.node[33].veinsmobility 	stopTime 	111.75
scalar IntersectionExampleScenario.node[33].veinsmobility 	minSpeed 	5.6500000953674
scalar IntersectionExampleScenario.node[33].veinsmobility 	maxSpeed 	15.256843566895
scalar IntersectionExampleScenario.node[33].veinsmobility 	totalDistance 	564.0329284668
scalar IntersectionExampleScenario.node[33].veinsmobility 	totalCO2Emission 	116.12996609541
scalar IntersectionExampleScenario.node[22].appl 	VehicleRemoved 	0
scalar IntersectionExampleScenario.node[22].appl 	ArrivedAtDest 	1
scalar IntersectionExampleScenario.node[22].appl 	IntersectionEnterTime 	50.75
scalar IntersectionExampleScenario.node[22].appl 	IntersectionExitTime 	100.28915731536
scalar IntersectionExampleScenario.node[22].appl 	NumberOfCollisions 	0
scalar IntersectionExampleScenario.node[22].nic.phy80211p 	busyTime 	0
scalar IntersectionExampleScenario.node[22].nic.mac1609_4 	ReceivedUnicastPackets 	0
scalar IntersectionExampleScenario.node[22].nic.mac1609_4 	ReceivedBroadcasts 	0
scalar IntersectionExampleScenario.node[22].nic.mac1609_4 	SentPackets 	0
scalar IntersectionExampleScenario.node[22].nic.mac1609_4 	SNIRLostPackets 	0
scalar IntersectionExampleScenario.node[22].nic.mac1609_4 	RXTXLostPackets 	0
scalar IntersectionExampleScenario.node[22].nic.mac1609_4 	TotalLostPackets 	0
scalar IntersectionExampleScenario.node[22].nic.mac1609_4 	DroppedPacketsInMac 	0
scalar IntersectionExampleScenario.node[22].nic.mac1609_4 	TooLittleTime 	0
scalar IntersectionExampleScenario.node[22].nic.mac1609_4 	TimesIntoBackoff 	0
scalar IntersectionExampleScenario.node[22].nic.mac1609_4 	SlotsBackoff 	0
scalar IntersectionExampleScenario.node[22].nic.mac1609_4 	NumInternalContention 	0
scalar IntersectionExampleScenario.node[22].nic.mac1609_4 	totalBusyTime 	0
scalar IntersectionExampleScenario.node[22].veinsmobility 	startTime 	50.75
scalar IntersectionExampleScenario.node[22].veinsmobility 	totalTime 	65.5
scalar IntersectionExampleScenario.node[22].veinsmobility 	stopTime 	116.5
scalar IntersectionExampleScenario.node[22].veinsmobility 	minSpeed 	0
scalar IntersectionExampleScenario.node[22].veinsmobility 	maxSpeed 	15.375
scalar IntersectionExampleScenario.node[22].veinsmobility 	totalDistance 	551.9105682373
scalar IntersectionExampleScenario.node[22].veinsmobility 	totalCO2Emission 	174.79920959564
scalar IntersectionExampleScenario.node[25].appl 	VehicleRemoved 	0
scalar IntersectionExampleScenario.node[25].appl 	ArrivedAtDest 	1
scalar IntersectionExampleScenario.node[25].appl 	IntersectionEnterTime 	52.25
scalar IntersectionExampleScenario.node[25].appl 	IntersectionExitTime 	102.35861457876
scalar IntersectionExampleScenario.node[25].appl 	NumberOfCollisions 	0
scalar IntersectionExampleScenario.node[25].nic.phy80211p 	busyTime 	0
scalar IntersectionExampleScenario.node[25].nic.mac1609_4 	ReceivedUnicastPackets 	0
scalar IntersectionExampleScenario.node[25].nic.mac1609_4 	ReceivedBroadcasts 	0
scalar IntersectionExampleScenario.node[25].nic.mac1609_4 	SentPackets 	0
scalar IntersectionExampleScenario.node[25].nic.mac1609_4 	SNIRLostPackets 	0
scalar IntersectionExampleScenario.node[25].nic.mac1609_4 	RXTXLostPackets 	0
scalar IntersectionExampleScenario.node[25].nic.mac1609_4 	TotalLostPackets 	0
scalar IntersectionExampleScenario.node[25].nic.mac1609_4 	DroppedPacketsInMac 	0
scalar IntersectionExampleScenario.node[25].nic.mac1609_4 	TooLittleTime 	0
scalar IntersectionExampleScenario.node[25].nic.mac1609_4 	TimesIntoBackoff 	0
scalar IntersectionExampleScenario.node[25].nic.mac1609_4 	SlotsBackoff 	0
scalar IntersectionExampleScenario.node[25].nic.mac1609_4 	NumInternalContention 	0
scalar IntersectionExampleScenario.node[25].nic.mac1609_4 	totalBusyTime 	0
scalar IntersectionExampleScenario.node[25].veinsmobility 	startTime 	52.25
scalar IntersectionExampleScenario.node[25].veinsmobility 	totalTime 	65.75
scalar IntersectionExampleScenario.node[25].veinsmobility 	stopTime 	118.25
scalar IntersectionExampleScenario.node[25].veinsmobility 	minSpeed 	0
scalar IntersectionExampleScenario.node[25].veinsmobility 	maxSpeed 	15.418863296509
scalar IntersectionExampleScenario.node[25].veinsmobility 	totalDistance 	572.3837890625
scalar IntersectionExampleScenario.node[25].veinsmobility 	totalCO2Emission 	168.94920918758
scalar IntersectionExampleScenario.node[37].appl 	VehicleRemoved 	0
scalar IntersectionExampleScenario.node[37].appl 	ArrivedAtDest 	1
scalar IntersectionExampleScenario.node[37].appl 	IntersectionEnterTime 	77.75
scalar IntersectionExampleScenario.node[37].appl 	IntersectionExitTime 	104.2522837545
scalar IntersectionExampleScenario.node[37].appl 	NumberOfCollisions 	0
scalar IntersectionExampleScenario.node[37].nic.phy80211p 	busyTime 	0
scalar IntersectionExampleScenario.node[37].nic.mac1609_4 	ReceivedUnicastPackets 	0
scalar IntersectionExampleScenario.node[37].nic.mac1609_4 	ReceivedBroadcasts 	0
scalar IntersectionExampleScenario.node[37].nic.mac1609_4 	SentPackets 	0
scalar IntersectionExampleScenario.node[37].nic.mac1609_4 	SNIRLostPackets 	0
scalar IntersectionExampleScenario.node[37].nic.mac1609_4 	RXTXLostPackets 	0
scalar IntersectionExampleScenario.node[37].nic.mac1609_4 	TotalLostPackets 	0
scalar IntersectionExampleScenario.node[37].nic.mac1609_4 	DroppedPacketsInMac 	0
scalar IntersectionExampleScenario.node[37].nic.mac1609_4 	TooLittleTime 	0
scalar IntersectionExampleScenario.node[37].nic.mac1609_4 	TimesIntoBackoff 	0
scalar IntersectionExampleScenario.node[37].nic.mac1609_4 	SlotsBackoff 	0
scalar IntersectionExampleScenario.node[37].nic.mac1609_4 	NumInternalContention 	0
scalar IntersectionExampleScenario.node[37].nic.mac1609_4 	totalBusyTime 	0
scalar IntersectionExampleScenario.node[37].veinsmobility 	startTime 	77.75
scalar IntersectionExampleScenario.node[37].veinsmobility 	totalTime 	43.5
scalar IntersectionExampleScenario.node[37].veinsmobility 	stopTime 	121.5
scalar IntersectionExampleScenario.node[37].veinsmobility 	minSpeed 	5.6500000953674
scalar IntersectionExampleScenario.node[37].veinsmobility 	maxSpeed 	15.25
scalar IntersectionExampleScenario.node[37].veinsmobility 	totalDistance 	546.25386305857
scalar IntersectionExampleScenario.node[37].veinsmobility 	totalCO2Emission 	136.66565575732
scalar IntersectionExampleScenario.node[39].appl 	VehicleRemoved 	0
scalar IntersectionExampleScenario.node[39].appl 	ArrivedAtDest 	1
scalar IntersectionExampleScenario.node[39].appl 	IntersectionEnterTime 	80.75
scalar IntersectionExampleScenario.node[39].appl 	IntersectionExitTime 	106.002373141
scalar IntersectionExampleScenario.node[39].appl 	NumberOfCollisions 	0
scalar IntersectionExampleScenario.node[39].nic.phy80211p 	busyTime 	0
scalar IntersectionExampleScenario.node[39].nic.mac1609_4 	ReceivedUnicastPackets 	0
scalar IntersectionExampleScenario.node[39].nic.mac1609_4 	ReceivedBroadcasts 	0
scalar IntersectionExampleScenario.node[39].nic.mac1609_4 	SentPackets 	0
scalar IntersectionExampleScenario.node[39].nic.mac1609_4 	SNIRLostPackets 	0
scalar IntersectionExampleScenario.node[39].nic.mac1609_4 	RXTXLostPackets 	0
scalar IntersectionExampleScenario.node[39].nic.mac1609_4 	TotalLostPackets 	0
scalar IntersectionExampleScenario.node[39].nic.mac1609_4 	DroppedPacketsInMac 	0
scalar IntersectionExampleScenario.node[39].nic.mac1609_4 	TooLittleTime 	0
scalar IntersectionExampleScenario.node[39].nic.mac1609_4 	TimesIntoBackoff 	0
scalar IntersectionExampleScenario.node[39].nic.mac1609_4 	SlotsBackoff 	0
scalar IntersectionExampleScenario.node[39].nic.mac1609_4 	NumInternalContention 	0
scalar IntersectionExampleScenario.node[39].nic.mac1609_4 	totalBusyTime 	0
scalar IntersectionExampleScenario.node[39].veinsmobility 	startTime 	80.75
scalar IntersectionExampleScenario.node[39].veinsmobility 	totalTime 	41
scalar IntersectionExampleScenario.node[39].veinsmobility 	stopTime 	122
scalar IntersectionExampleScenario.node[39].veinsmobility 	minSpeed 	5.6500000953674
scalar IntersectionExampleScenario.node[39].veinsmobility 	maxSpeed 	15.644317626953
scalar IntersectionExampleScenario.node[39].veinsmobility 	totalDistance 	565.77253723145
scalar IntersectionExampleScenario.node[39].veinsmobility 	totalCO2Emission 	132.81783506138
scalar IntersectionExampleScenario.node[34].appl 	VehicleRemoved 	0
scalar IntersectionExampleScenario.node[34].appl 	ArrivedAtDest 	1
scalar IntersectionExampleScenario.node[34].appl 	IntersectionEnterTime 	74.5
scalar IntersectionExampleScenario.node[34].appl 	IntersectionExitTime 	110.26815129461
scalar IntersectionExampleScenario.node[34].appl 	NumberOfCollisions 	0
scalar IntersectionExampleScenario.node[34].nic.phy80211p 	busyTime 	0
scalar IntersectionExampleScenario.node[34].nic.mac1609_4 	ReceivedUnicastPackets 	0
scalar IntersectionExampleScenario.node[34].nic.mac1609_4 	ReceivedBroadcasts 	0
scalar IntersectionExampleScenario.node[34].nic.mac1609_4 	SentPackets 	0
scalar IntersectionExampleScenario.node[34].nic.mac1609_4 	SNIRLostPackets 	0
scalar IntersectionExampleScenario.node[34].nic.mac1609_4 	RXTXLostPackets 	0
scalar IntersectionExampleScenario.node[34].nic.mac1609_4 	TotalLostPackets 	0
scalar IntersectionExampleScenario.node[34].nic.mac1609_4 	DroppedPacketsInMac 	0
scalar IntersectionExampleScenario.node[34].nic.mac1609_4 	TooLittleTime 	0
scalar IntersectionExampleScenario.node[34].nic.mac1609_4 	TimesIntoBackoff 	0
scalar IntersectionExampleScenario.node[34].nic.mac1609_4 	SlotsBackoff 	0
scalar IntersectionExampleScenario.node[34].nic.mac1609_4 	NumInternalContention 	0
scalar IntersectionExampleScenario.node[34].nic.mac1609_4 	totalBusyTime 	0
scalar IntersectionExampleScenario.node[34].veinsmobility 	startTime 	74.5
scalar IntersectionExampleScenario.node[34].veinsmobility 	totalTime 	51.5
scalar IntersectionExampleScenario.node[34].veinsmobility 	stopTime 	126.25
scalar IntersectionExampleScenario.node[34].veinsmobility 	minSpeed 	0
scalar IntersectionExampleScenario.node[34].veinsmobility 	maxSpeed 	16
scalar IntersectionExampleScenario.node[34].veinsmobility 	totalDistance 	554.25540924072
scalar IntersectionExampleScenario.node[34].veinsmobility 	totalCO2Emission 	147.04160248082
scalar IntersectionExampleScenario.node[41].appl 	VehicleRemoved 	0
scalar IntersectionExampleScenario.node[41].appl 	ArrivedAtDest 	1
scalar IntersectionExampleScenario.node[41].appl 	IntersectionEnterTime 	86
scalar IntersectionExampleScenario.node[41].appl 	IntersectionExitTime 	112.61920749553
scalar IntersectionExampleScenario.node[41].appl 	NumberOfCollisions 	0
scalar IntersectionExampleScenario.node[41].nic.phy80211p 	busyTime 	0
scalar IntersectionExampleScenario.node[41].nic.mac1609_4 	ReceivedUnicastPackets 	0
scalar IntersectionExampleScenario.node[41].nic.mac1609_4 	ReceivedBroadcasts 	0
scalar IntersectionExampleScenario.node[41].nic.mac1609_4 	SentPackets 	0
scalar IntersectionExampleScenario.node[41].nic.mac1609_4 	SNIRLostPackets 	0
scalar IntersectionExampleScenario.node[41].nic.mac1609_4 	RXTXLostPackets 	0
scalar IntersectionExampleScenario.node[41].nic.mac1609_4 	TotalLostPackets 	0
scalar IntersectionExampleScenario.node[41].nic.mac1609_4 	DroppedPacketsInMac 	0
scalar IntersectionExampleScenario.node[41].nic.mac1609_4 	TooLittleTime 	0
scalar IntersectionExampleScenario.node[41].nic.mac1609_4 	TimesIntoBackoff 	0
scalar IntersectionExampleScenario.node[41].nic.mac1609_4 	SlotsBackoff 	0
scalar IntersectionExampleScenario.node[41].nic.mac1609_4 	NumInternalContention 	0
scalar IntersectionExampleScenario.node[41].nic.mac1609_4 	totalBusyTime 	0
scalar IntersectionExampleScenario.node[41].veinsmobility 	startTime 	86
scalar IntersectionExampleScenario.node[41].veinsmobility 	totalTime 	42.75
scalar IntersectionExampleScenario.node[41].veinsmobility 	stopTime 	129
scalar IntersectionExampleScenario.node[41].veinsmobility 	minSpeed 	5.4822015762329
scalar IntersectionExampleScenario.node[41].veinsmobility 	maxSpeed 	16.5
scalar IntersectionExampleScenario.node[41].veinsmobility 	totalDistance 	546.32717435222
scalar IntersectionExampleScenario.node[41].veinsmobility 	totalCO2Emission 	141.6948205207
scalar IntersectionExampleScenario.node[42].appl 	VehicleRemoved 	0
scalar IntersectionExampleScenario.node[42].appl 	ArrivedAtDest 	1
scalar IntersectionExampleScenario.node[42].appl 	IntersectionEnterTime 	86.5
scalar IntersectionExampleScenario.node[42].appl 	IntersectionExitTime 	115.55557178284
scalar IntersectionExampleScenario.node[42].appl 	NumberOfCollisions 	0
scalar IntersectionExampleScenario.node[42].nic.phy80211p 	busyTime 	0
scalar IntersectionExampleScenario.node[42].nic.mac1609_4 	ReceivedUnicastPackets 	0
scalar IntersectionExampleScenario.node[42].nic.mac1609_4 	ReceivedBroadcasts 	0
scalar IntersectionExampleScenario.node[42].nic.mac1609_4 	SentPackets 	0
scalar IntersectionExampleScenario.node[42].nic.mac1609_4 	SNIRLostPackets 	0
scalar IntersectionExampleScenario.node[42].nic.mac1609_4 	RXTXLostPackets 	0
scalar IntersectionExampleScenario.node[42].nic.mac1609_4 	TotalLostPackets 	0
scalar IntersectionExampleScenario.node[42].nic.mac1609_4 	DroppedPacketsInMac 	0
scalar IntersectionExampleScenario.node[42].nic.mac1609_4 	TooLittleTime 	0
scalar IntersectionExampleScenario.node[42].nic.mac1609_4 	TimesIntoBackoff 	0
scalar IntersectionExampleScenario.node[42].nic.mac1609_4 	SlotsBackoff 	0
scalar IntersectionExampleScenario.node[42].nic.mac1609_4 	NumInternalContention 	0
scalar IntersectionExampleScenario.node[42].nic.mac1609_4 	totalBusyTime 	0
scalar IntersectionExampleScenario.node[42].veinsmobility 	startTime 	86.5
scalar IntersectionExampleScenario.node[42].veinsmobility 	totalTime 	46
scalar IntersectionExampleScenario.node[42].veinsmobility 	stopTime 	132.75
scalar IntersectionExampleScenario.node[42].veinsmobility 	minSpeed 	5.5339779853821
scalar IntersectionExampleScenario.node[42].veinsmobility 	maxSpeed 	15.322340965271
scalar IntersectionExampleScenario.node[42].veinsmobility 	totalDistance 	567.8987905325
scalar IntersectionExampleScenario.node[42].veinsmobility 	totalCO2Emission 	138.88915720906
scalar IntersectionExampleScenario.node[40].appl 	VehicleRemoved 	0
scalar IntersectionExampleScenario.node[40].appl 	ArrivedAtDest 	1
scalar IntersectionExampleScenario.node[40].appl 	IntersectionEnterTime 	84.75
scalar IntersectionExampleScenario.node[40].appl 	IntersectionExitTime 	118.55404863754
scalar IntersectionExampleScenario.node[40].appl 	NumberOfCollisions 	0
scalar IntersectionExampleScenario.node[40].nic.phy80211p 	busyTime 	0
scalar IntersectionExampleScenario.node[40].nic.mac1609_4 	ReceivedUnicastPackets 	0
scalar IntersectionExampleScenario.node[40].nic.mac1609_4 	ReceivedBroadcasts 	0
scalar IntersectionExampleScenario.node[40].nic.mac1609_4 	SentPackets 	0
scalar IntersectionExampleScenario.node[40].nic.mac1609_4 	SNIRLostPackets 	0
scalar IntersectionExampleScenario.node[40].nic.mac1609_4 	RXTXLostPackets 	0
scalar IntersectionExampleScenario.node[40].nic.mac1609_4 	TotalLostPackets 	0
scalar IntersectionExampleScenario.node[40].nic.mac1609_4 	DroppedPacketsInMac 	0
scalar IntersectionExampleScenario.node[40].nic.mac1609_4 	TooLittleTime 	0
scalar IntersectionExampleScenario.node[40].nic.mac1609_4 	TimesIntoBackoff 	0
scalar IntersectionExampleScenario.node[40].nic.mac1609_4 	SlotsBackoff 	0
[...]
scalar IntersectionExampleScenario.node[749].veinsmobility 	totalCO2Emission 	61.665030806436
scalar IntersectionExampleScenario.node[750].appl 	VehicleRemoved 	0
scalar IntersectionExampleScenario.node[750].appl 	ArrivedAtDest 	0
scalar IntersectionExampleScenario.node[750].appl 	IntersectionEnterTime 	1784.25
scalar IntersectionExampleScenario.node[750].appl 	IntersectionExitTime 	-1
scalar IntersectionExampleScenario.node[750].appl 	NumberOfCollisions 	0
scalar IntersectionExampleScenario.node[750].nic.phy80211p 	busyTime 	0
scalar IntersectionExampleScenario.node[750].nic.mac1609_4 	ReceivedUnicastPackets 	0
scalar IntersectionExampleScenario.node[750].nic.mac1609_4 	ReceivedBroadcasts 	0
scalar IntersectionExampleScenario.node[750].nic.mac1609_4 	SentPackets 	0
scalar IntersectionExampleScenario.node[750].nic.mac1609_4 	SNIRLostPackets 	0
scalar IntersectionExampleScenario.node[750].nic.mac1609_4 	RXTXLostPackets 	0
scalar IntersectionExampleScenario.node[750].nic.mac1609_4 	TotalLostPackets 	0
scalar IntersectionExampleScenario.node[750].nic.mac1609_4 	DroppedPacketsInMac 	0
scalar IntersectionExampleScenario.node[750].nic.mac1609_4 	TooLittleTime 	0
scalar IntersectionExampleScenario.node[750].nic.mac1609_4 	TimesIntoBackoff 	0
scalar IntersectionExampleScenario.node[750].nic.mac1609_4 	SlotsBackoff 	0
scalar IntersectionExampleScenario.node[750].nic.mac1609_4 	NumInternalContention 	0
scalar IntersectionExampleScenario.node[750].nic.mac1609_4 	totalBusyTime 	0
scalar IntersectionExampleScenario.node[750].veinsmobility 	startTime 	1784.25
scalar IntersectionExampleScenario.node[750].veinsmobility 	totalTime 	15.75
scalar IntersectionExampleScenario.node[750].veinsmobility 	stopTime 	1800
scalar IntersectionExampleScenario.node[750].veinsmobility 	minSpeed 	5.6500000953674
scalar IntersectionExampleScenario.node[750].veinsmobility 	maxSpeed 	15.64999961853
scalar IntersectionExampleScenario.node[750].veinsmobility 	totalDistance 	208.30057525635
scalar IntersectionExampleScenario.node[750].veinsmobility 	totalCO2Emission 	52.219600348894
scalar IntersectionExampleScenario.node[751].appl 	VehicleRemoved 	0
scalar IntersectionExampleScenario.node[751].appl 	ArrivedAtDest 	0
scalar IntersectionExampleScenario.node[751].appl 	IntersectionEnterTime 	1785.25
scalar IntersectionExampleScenario.node[751].appl 	IntersectionExitTime 	-1
scalar IntersectionExampleScenario.node[751].appl 	NumberOfCollisions 	0
scalar IntersectionExampleScenario.node[751].nic.phy80211p 	busyTime 	0
scalar IntersectionExampleScenario.node[751].nic.mac1609_4 	ReceivedUnicastPackets 	0
scalar IntersectionExampleScenario.node[751].nic.mac1609_4 	ReceivedBroadcasts 	0
scalar IntersectionExampleScenario.node[751].nic.mac1609_4 	SentPackets 	0
scalar IntersectionExampleScenario.node[751].nic.mac1609_4 	SNIRLostPackets 	0
scalar IntersectionExampleScenario.node[751].nic.mac1609_4 	RXTXLostPackets 	0
scalar IntersectionExampleScenario.node[751].nic.mac1609_4 	TotalLostPackets 	0
scalar IntersectionExampleScenario.node[751].nic.mac1609_4 	DroppedPacketsInMac 	0
scalar IntersectionExampleScenario.node[751].nic.mac1609_4 	TooLittleTime 	0
scalar IntersectionExampleScenario.node[751].nic.mac1609_4 	TimesIntoBackoff 	0
scalar IntersectionExampleScenario.node[751].nic.mac1609_4 	SlotsBackoff 	0
scalar IntersectionExampleScenario.node[751].nic.mac1609_4 	NumInternalContention 	0
scalar IntersectionExampleScenario.node[751].nic.mac1609_4 	totalBusyTime 	0
scalar IntersectionExampleScenario.node[751].veinsmobility 	startTime 	1785.25
scalar IntersectionExampleScenario.node[751].veinsmobility 	totalTime 	14.75
scalar IntersectionExampleScenario.node[751].veinsmobility 	stopTime 	1800
scalar IntersectionExampleScenario.node[751].veinsmobility 	minSpeed 	5.6500000953674
scalar IntersectionExampleScenario.node[751].veinsmobility 	maxSpeed 	16.246934890747
scalar IntersectionExampleScenario.node[751].veinsmobility 	totalDistance 	211.31078338623
scalar IntersectionExampleScenario.node[751].veinsmobility 	totalCO2Emission 	56.902533365936
scalar IntersectionExampleScenario.node[752].appl 	VehicleRemoved 	0
scalar IntersectionExampleScenario.node[752].appl 	ArrivedAtDest 	0
scalar IntersectionExampleScenario.node[752].appl 	IntersectionEnterTime 	1789.5
scalar IntersectionExampleScenario.node[752].appl 	IntersectionExitTime 	-1
scalar IntersectionExampleScenario.node[752].appl 	NumberOfCollisions 	0
scalar IntersectionExampleScenario.node[752].nic.phy80211p 	busyTime 	0
scalar IntersectionExampleScenario.node[752].nic.mac1609_4 	ReceivedUnicastPackets 	0
scalar IntersectionExampleScenario.node[752].nic.mac1609_4 	ReceivedBroadcasts 	0
scalar IntersectionExampleScenario.node[752].nic.mac1609_4 	SentPackets 	0
scalar IntersectionExampleScenario.node[752].nic.mac1609_4 	SNIRLostPackets 	0
scalar IntersectionExampleScenario.node[752].nic.mac1609_4 	RXTXLostPackets 	0
scalar IntersectionExampleScenario.node[752].nic.mac1609_4 	TotalLostPackets 	0
scalar IntersectionExampleScenario.node[752].nic.mac1609_4 	DroppedPacketsInMac 	0
scalar IntersectionExampleScenario.node[752].nic.mac1609_4 	TooLittleTime 	0
scalar IntersectionExampleScenario.node[752].nic.mac1609_4 	TimesIntoBackoff 	0
scalar IntersectionExampleScenario.node[752].nic.mac1609_4 	SlotsBackoff 	0
scalar IntersectionExampleScenario.node[752].nic.mac1609_4 	NumInternalContention 	0
scalar IntersectionExampleScenario.node[752].nic.mac1609_4 	totalBusyTime 	0
scalar IntersectionExampleScenario.node[752].veinsmobility 	startTime 	1789.5
scalar IntersectionExampleScenario.node[752].veinsmobility 	totalTime 	10.5
scalar IntersectionExampleScenario.node[752].veinsmobility 	stopTime 	1800
scalar IntersectionExampleScenario.node[752].veinsmobility 	minSpeed 	5.6500000953674
scalar IntersectionExampleScenario.node[752].veinsmobility 	maxSpeed 	16.323066711426
scalar IntersectionExampleScenario.node[752].veinsmobility 	totalDistance 	142.84490966797
scalar IntersectionExampleScenario.node[752].veinsmobility 	totalCO2Emission 	49.05414017267
scalar IntersectionExampleScenario.node[753].appl 	VehicleRemoved 	0
scalar IntersectionExampleScenario.node[753].appl 	ArrivedAtDest 	0
scalar IntersectionExampleScenario.node[753].appl 	IntersectionEnterTime 	1792
scalar IntersectionExampleScenario.node[753].appl 	IntersectionExitTime 	-1
scalar IntersectionExampleScenario.node[753].appl 	NumberOfCollisions 	0
scalar IntersectionExampleScenario.node[753].nic.phy80211p 	busyTime 	0
scalar IntersectionExampleScenario.node[753].nic.mac1609_4 	ReceivedUnicastPackets 	0
scalar IntersectionExampleScenario.node[753].nic.mac1609_4 	ReceivedBroadcasts 	0
scalar IntersectionExampleScenario.node[753].nic.mac1609_4 	SentPackets 	0
scalar IntersectionExampleScenario.node[753].nic.mac1609_4 	SNIRLostPackets 	0
scalar IntersectionExampleScenario.node[753].nic.mac1609_4 	RXTXLostPackets 	0
scalar IntersectionExampleScenario.node[753].nic.mac1609_4 	TotalLostPackets 	0
scalar IntersectionExampleScenario.node[753].nic.mac1609_4 	DroppedPacketsInMac 	0
scalar IntersectionExampleScenario.node[753].nic.mac1609_4 	TooLittleTime 	0
scalar IntersectionExampleScenario.node[753].nic.mac1609_4 	TimesIntoBackoff 	0
scalar IntersectionExampleScenario.node[753].nic.mac1609_4 	SlotsBackoff 	0
scalar IntersectionExampleScenario.node[753].nic.mac1609_4 	NumInternalContention 	0
scalar IntersectionExampleScenario.node[753].nic.mac1609_4 	totalBusyTime 	0
scalar IntersectionExampleScenario.node[753].veinsmobility 	startTime 	1792
scalar IntersectionExampleScenario.node[753].veinsmobility 	totalTime 	8
scalar IntersectionExampleScenario.node[753].veinsmobility 	stopTime 	1800
scalar IntersectionExampleScenario.node[753].veinsmobility 	minSpeed 	5.6500000953674
scalar IntersectionExampleScenario.node[753].veinsmobility 	maxSpeed 	16.27499961853
scalar IntersectionExampleScenario.node[753].veinsmobility 	totalDistance 	104.15087890625
scalar IntersectionExampleScenario.node[753].veinsmobility 	totalCO2Emission 	43.469945718163
scalar IntersectionExampleScenario.node[754].appl 	VehicleRemoved 	0
scalar IntersectionExampleScenario.node[754].appl 	ArrivedAtDest 	0
scalar IntersectionExampleScenario.node[754].appl 	IntersectionEnterTime 	1793.25
scalar IntersectionExampleScenario.node[754].appl 	IntersectionExitTime 	-1
scalar IntersectionExampleScenario.node[754].appl 	NumberOfCollisions 	0
scalar IntersectionExampleScenario.node[754].nic.phy80211p 	busyTime 	0
scalar IntersectionExampleScenario.node[754].nic.mac1609_4 	ReceivedUnicastPackets 	0
scalar IntersectionExampleScenario.node[754].nic.mac1609_4 	ReceivedBroadcasts 	0
scalar IntersectionExampleScenario.node[754].nic.mac1609_4 	SentPackets 	0
scalar IntersectionExampleScenario.node[754].nic.mac1609_4 	SNIRLostPackets 	0
scalar IntersectionExampleScenario.node[754].nic.mac1609_4 	RXTXLostPackets 	0
scalar IntersectionExampleScenario.node[754].nic.mac1609_4 	TotalLostPackets 	0
scalar IntersectionExampleScenario.node[754].nic.mac1609_4 	DroppedPacketsInMac 	0
scalar IntersectionExampleScenario.node[754].nic.mac1609_4 	TooLittleTime 	0
scalar IntersectionExampleScenario.node[754].nic.mac1609_4 	TimesIntoBackoff 	0
scalar IntersectionExampleScenario.node[754].nic.mac1609_4 	SlotsBackoff 	0
scalar IntersectionExampleScenario.node[754].nic.mac1609_4 	NumInternalContention 	0
scalar IntersectionExampleScenario.node[754].nic.mac1609_4 	totalBusyTime 	0
scalar IntersectionExampleScenario.node[754].veinsmobility 	startTime 	1793.25
scalar IntersectionExampleScenario.node[754].veinsmobility 	totalTime 	6.75
scalar IntersectionExampleScenario.node[754].veinsmobility 	stopTime 	1800
scalar IntersectionExampleScenario.node[754].veinsmobility 	minSpeed 	5.6500000953674
scalar IntersectionExampleScenario.node[754].veinsmobility 	maxSpeed 	15.399600982666
scalar IntersectionExampleScenario.node[754].veinsmobility 	totalDistance 	82.307792663574
scalar IntersectionExampleScenario.node[754].veinsmobility 	totalCO2Emission 	37.917329787514
scalar IntersectionExampleScenario.node[755].appl 	VehicleRemoved 	0
scalar IntersectionExampleScenario.node[755].appl 	ArrivedAtDest 	0
scalar IntersectionExampleScenario.node[755].appl 	IntersectionEnterTime 	1795.75
scalar IntersectionExampleScenario.node[755].appl 	IntersectionExitTime 	-1
scalar IntersectionExampleScenario.node[755].appl 	NumberOfCollisions 	0
scalar IntersectionExampleScenario.node[755].nic.phy80211p 	busyTime 	0
scalar IntersectionExampleScenario.node[755].nic.mac1609_4 	ReceivedUnicastPackets 	0
scalar IntersectionExampleScenario.node[755].nic.mac1609_4 	ReceivedBroadcasts 	0
scalar IntersectionExampleScenario.node[755].nic.mac1609_4 	SentPackets 	0
scalar IntersectionExampleScenario.node[755].nic.mac1609_4 	SNIRLostPackets 	0
scalar IntersectionExampleScenario.node[755].nic.mac1609_4 	RXTXLostPackets 	0
scalar IntersectionExampleScenario.node[755].nic.mac1609_4 	TotalLostPackets 	0
scalar IntersectionExampleScenario.node[755].nic.mac1609_4 	DroppedPacketsInMac 	0
scalar IntersectionExampleScenario.node[755].nic.mac1609_4 	TooLittleTime 	0
scalar IntersectionExampleScenario.node[755].nic.mac1609_4 	TimesIntoBackoff 	0
scalar IntersectionExampleScenario.node[755].nic.mac1609_4 	SlotsBackoff 	0
scalar IntersectionExampleScenario.node[755].nic.mac1609_4 	NumInternalContention 	0
scalar IntersectionExampleScenario.node[755].nic.mac1609_4 	totalBusyTime 	0
scalar IntersectionExampleScenario.node[755].veinsmobility 	startTime 	1795.75
scalar IntersectionExampleScenario.node[755].veinsmobility 	totalTime 	4.25
scalar IntersectionExampleScenario.node[755].veinsmobility 	stopTime 	1800
scalar IntersectionExampleScenario.node[755].veinsmobility 	minSpeed 	5.6500000953674
scalar IntersectionExampleScenario.node[755].veinsmobility 	maxSpeed 	15.02499961853
scalar IntersectionExampleScenario.node[755].veinsmobility 	totalDistance 	43.853538513184
scalar IntersectionExampleScenario.node[755].veinsmobility 	totalCO2Emission 	31.108630602743
scalar IntersectionExampleScenario.node[756].appl 	VehicleRemoved 	0
scalar IntersectionExampleScenario.node[756].appl 	ArrivedAtDest 	0
scalar IntersectionExampleScenario.node[756].appl 	IntersectionEnterTime 	1796.5
scalar IntersectionExampleScenario.node[756].appl 	IntersectionExitTime 	-1
scalar IntersectionExampleScenario.node[756].appl 	NumberOfCollisions 	0
scalar IntersectionExampleScenario.node[756].nic.phy80211p 	busyTime 	0
scalar IntersectionExampleScenario.node[756].nic.mac1609_4 	ReceivedUnicastPackets 	0
scalar IntersectionExampleScenario.node[756].nic.mac1609_4 	ReceivedBroadcasts 	0
scalar IntersectionExampleScenario.node[756].nic.mac1609_4 	SentPackets 	0
scalar IntersectionExampleScenario.node[756].nic.mac1609_4 	SNIRLostPackets 	0
scalar IntersectionExampleScenario.node[756].nic.mac1609_4 	RXTXLostPackets 	0
scalar IntersectionExampleScenario.node[756].nic.mac1609_4 	TotalLostPackets 	0
scalar IntersectionExampleScenario.node[756].nic.mac1609_4 	DroppedPacketsInMac 	0
scalar IntersectionExampleScenario.node[756].nic.mac1609_4 	TooLittleTime 	0
scalar IntersectionExampleScenario.node[756].nic.mac1609_4 	TimesIntoBackoff 	0
scalar IntersectionExampleScenario.node[756].nic.mac1609_4 	SlotsBackoff 	0
scalar IntersectionExampleScenario.node[756].nic.mac1609_4 	NumInternalContention 	0
scalar IntersectionExampleScenario.node[756].nic.mac1609_4 	totalBusyTime 	0
scalar IntersectionExampleScenario.node[756].veinsmobility 	startTime 	1796.5
scalar IntersectionExampleScenario.node[756].veinsmobility 	totalTime 	3.5
scalar IntersectionExampleScenario.node[756].veinsmobility 	stopTime 	1800
scalar IntersectionExampleScenario.node[756].veinsmobility 	minSpeed 	5.6500000953674
scalar IntersectionExampleScenario.node[756].veinsmobility 	maxSpeed 	13.77499961853
scalar IntersectionExampleScenario.node[756].veinsmobility 	totalDistance 	32.899963378906
scalar IntersectionExampleScenario.node[756].veinsmobility 	totalCO2Emission 	25.161289661203
scalar IntersectionExampleScenario.node[757].appl 	VehicleRemoved 	0
scalar IntersectionExampleScenario.node[757].appl 	ArrivedAtDest 	0
scalar IntersectionExampleScenario.node[757].appl 	IntersectionEnterTime 	1798.25
scalar IntersectionExampleScenario.node[757].appl 	IntersectionExitTime 	-1
scalar IntersectionExampleScenario.node[757].appl 	NumberOfCollisions 	0
scalar IntersectionExampleScenario.node[757].nic.phy80211p 	busyTime 	0
scalar IntersectionExampleScenario.node[757].nic.mac1609_4 	ReceivedUnicastPackets 	0
scalar IntersectionExampleScenario.node[757].nic.mac1609_4 	ReceivedBroadcasts 	0
scalar IntersectionExampleScenario.node[757].nic.mac1609_4 	SentPackets 	0
scalar IntersectionExampleScenario.node[757].nic.mac1609_4 	SNIRLostPackets 	0
scalar IntersectionExampleScenario.node[757].nic.mac1609_4 	RXTXLostPackets 	0
scalar IntersectionExampleScenario.node[757].nic.mac1609_4 	TotalLostPackets 	0
scalar IntersectionExampleScenario.node[757].nic.mac1609_4 	DroppedPacketsInMac 	0
scalar IntersectionExampleScenario.node[757].nic.mac1609_4 	TooLittleTime 	0
scalar IntersectionExampleScenario.node[757].nic.mac1609_4 	TimesIntoBackoff 	0
scalar IntersectionExampleScenario.node[757].nic.mac1609_4 	SlotsBackoff 	0
scalar IntersectionExampleScenario.node[757].nic.mac1609_4 	NumInternalContention 	0
scalar IntersectionExampleScenario.node[757].nic.mac1609_4 	totalBusyTime 	0
scalar IntersectionExampleScenario.node[757].veinsmobility 	startTime 	1798.25
scalar IntersectionExampleScenario.node[757].veinsmobility 	totalTime 	1.75
scalar IntersectionExampleScenario.node[757].veinsmobility 	stopTime 	1800
scalar IntersectionExampleScenario.node[757].veinsmobility 	minSpeed 	5.6500000953674
scalar IntersectionExampleScenario.node[757].veinsmobility 	maxSpeed 	9.3999996185303
scalar IntersectionExampleScenario.node[757].veinsmobility 	totalDistance 	12.621887207031
scalar IntersectionExampleScenario.node[757].veinsmobility 	totalCO2Emission 	9.3856839288341
scalar IntersectionExampleScenario.node[758].appl 	VehicleRemoved 	0
scalar IntersectionExampleScenario.node[758].appl 	ArrivedAtDest 	0
scalar IntersectionExampleScenario.node[758].appl 	IntersectionEnterTime 	1798.75
scalar IntersectionExampleScenario.node[758].appl 	IntersectionExitTime 	-1
scalar IntersectionExampleScenario.node[758].appl 	NumberOfCollisions 	0
scalar IntersectionExampleScenario.node[758].nic.phy80211p 	busyTime 	0
scalar IntersectionExampleScenario.node[758].nic.mac1609_4 	ReceivedUnicastPackets 	0
scalar IntersectionExampleScenario.node[758].nic.mac1609_4 	ReceivedBroadcasts 	0
scalar IntersectionExampleScenario.node[758].nic.mac1609_4 	SentPackets 	0
scalar IntersectionExampleScenario.node[758].nic.mac1609_4 	SNIRLostPackets 	0
scalar IntersectionExampleScenario.node[758].nic.mac1609_4 	RXTXLostPackets 	0
scalar IntersectionExampleScenario.node[758].nic.mac1609_4 	TotalLostPackets 	0
scalar IntersectionExampleScenario.node[758].nic.mac1609_4 	DroppedPacketsInMac 	0
scalar IntersectionExampleScenario.node[758].nic.mac1609_4 	TooLittleTime 	0
scalar IntersectionExampleScenario.node[758].nic.mac1609_4 	TimesIntoBackoff 	0
scalar IntersectionExampleScenario.node[758].nic.mac1609_4 	SlotsBackoff 	0
scalar IntersectionExampleScenario.node[758].nic.mac1609_4 	NumInternalContention 	0
scalar IntersectionExampleScenario.node[758].nic.mac1609_4 	totalBusyTime 	0
scalar IntersectionExampleScenario.node[758].veinsmobility 	startTime 	1798.75
scalar IntersectionExampleScenario.node[758].veinsmobility 	totalTime 	1.25
scalar IntersectionExampleScenario.node[758].veinsmobility 	stopTime 	1800
scalar IntersectionExampleScenario.node[758].veinsmobility 	minSpeed 	5.6500000953674
scalar IntersectionExampleScenario.node[758].veinsmobility 	maxSpeed 	8.1499996185303
scalar IntersectionExampleScenario.node[758].veinsmobility 	totalDistance 	8.234375
scalar IntersectionExampleScenario.node[758].veinsmobility 	totalCO2Emission 	5.8390974258108
scalar IntersectionExampleScenario.node[759].appl 	VehicleRemoved 	0
scalar IntersectionExampleScenario.node[759].appl 	ArrivedAtDest 	0
scalar IntersectionExampleScenario.node[759].appl 	IntersectionEnterTime 	1799.5
scalar IntersectionExampleScenario.node[759].appl 	IntersectionExitTime 	-1
scalar IntersectionExampleScenario.node[759].appl 	NumberOfCollisions 	0
scalar IntersectionExampleScenario.node[759].nic.phy80211p 	busyTime 	0
scalar IntersectionExampleScenario.node[759].nic.mac1609_4 	ReceivedUnicastPackets 	0
scalar IntersectionExampleScenario.node[759].nic.mac1609_4 	ReceivedBroadcasts 	0
scalar IntersectionExampleScenario.node[759].nic.mac1609_4 	SentPackets 	0
scalar IntersectionExampleScenario.node[759].nic.mac1609_4 	SNIRLostPackets 	0
scalar IntersectionExampleScenario.node[759].nic.mac1609_4 	RXTXLostPackets 	0
scalar IntersectionExampleScenario.node[759].nic.mac1609_4 	TotalLostPackets 	0
scalar IntersectionExampleScenario.node[759].nic.mac1609_4 	DroppedPacketsInMac 	0
scalar IntersectionExampleScenario.node[759].nic.mac1609_4 	TooLittleTime 	0
scalar IntersectionExampleScenario.node[759].nic.mac1609_4 	TimesIntoBackoff 	0
scalar IntersectionExampleScenario.node[759].nic.mac1609_4 	SlotsBackoff 	0
scalar IntersectionExampleScenario.node[759].nic.mac1609_4 	NumInternalContention 	0
scalar IntersectionExampleScenario.node[759].nic.mac1609_4 	totalBusyTime 	0
scalar IntersectionExampleScenario.node[759].veinsmobility 	startTime 	1799.5
scalar IntersectionExampleScenario.node[759].veinsmobility 	totalTime 	0.5
scalar IntersectionExampleScenario.node[759].veinsmobility 	stopTime 	1800
scalar IntersectionExampleScenario.node[759].veinsmobility 	minSpeed 	5.6500000953674
scalar IntersectionExampleScenario.node[759].veinsmobility 	maxSpeed 	6.2750000953674
scalar IntersectionExampleScenario.node[759].veinsmobility 	totalDistance 	2.8249969482422
scalar IntersectionExampleScenario.node[759].veinsmobility 	totalCO2Emission 	1.3040546814646
