version 2
run nodebug-1-20200605-14:46:20-11144
attr configname nodebug
attr datetime 20200605-14:46:20
attr experiment nodebug
attr inifile omnetpp.ini
attr iterationvars ""
attr iterationvars2 $repetition=1
attr measurement ""
attr network "\"org.car2x.veins.modules.application.ExtTraCIScenarioManagerLaunchd.IntersectionExampleScenario\""
attr processid 11144
attr repetition 1
attr replication #1
attr resultdir results
attr runnumber 1
attr seedset 1
param **.coreDebug false
param **.debug false
param *.**.nic.mac1609_4.bitrate 18Mbps
param *.**.nic.mac1609_4.txPower 20mW
param *.**.nic.mac1609_4.useServiceChannel false
param *.**.nic.phy80211p.analogueModels "xmldoc(\"config.xml\")"
param *.**.nic.phy80211p.decider "xmldoc(\"config.xml\")"
param *.**.nic.phy80211p.sensitivity -89dBm
param *.**.nic.phy80211p.thermalNoise -110dBm
param *.**.nic.phy80211p.usePropagationDelay true
param *.**.nic.phy80211p.useThermalNoise true
param *.annotations.draw false
param *.connectionManager.alpha 2.0
param *.connectionManager.carrierFrequency "5.890e9 Hz"
param *.connectionManager.pMax 20mW
param *.connectionManager.sat -89dBm
param *.connectionManager.sendDirect true
param *.manager.autoShutdown true
param *.manager.host "\"localhost\""
param *.manager.launchConfig "xmldoc(\"paramics.launchd.xml\")"
param *.manager.margin 25
param *.manager.moduleDisplayString "\"\""
param *.manager.moduleName "\"node\""
param *.manager.moduleType "\"org.car2x.veins.nodes.Car\""
param *.manager.port 9999
param *.manager.updateInterval 250ms
param *.node[*0].veinsmobility.accidentCount 0
param *.node[*0].veinsmobility.accidentDuration 30s
param *.node[*0].veinsmobility.accidentStart 75s
param *.node[*].appl.LiderSelectZoneRadio 55.0
param *.node[*].appl.ShareDataZoneRadio 110.0
param *.node[*].appl.TiempoSemaforo 30.0
param *.node[*].appl.beaconInterval 1s
param *.node[*].appl.beaconPriority 3
param *.node[*].appl.dataOnSch false
param *.node[*].appl.dataPriority 2
param *.node[*].appl.debug false
param *.node[*].appl.headerLength "256 bit"
param *.node[*].appl.maxOffset 0.005s
param *.node[*].appl.sendBeacons false
param *.node[*].appl.sendData true
param *.node[*].applType "\"Dummy\""
param *.node[*].mobilityType "\"TraCIMobility\""
param *.node[*].mobilityType.debug true
param *.node[*].veinsmobility.x 0
param *.node[*].veinsmobility.y 0
param *.node[*].veinsmobility.z 1.895
param *.node[*].veinsmobilityType "\"org.car2x.veins.modules.mobility.traci.TraCIMobility\""
param *.node[*].veinsmobilityType.debug true
param *.playgroundSizeX 8500m
param *.playgroundSizeY 8500m
param *.playgroundSizeZ 50m
param *.world.use2D false
param *.world.useTorus false

scalar IntersectionExampleScenario.node[0].appl 	VehicleRemoved 	0
scalar IntersectionExampleScenario.node[0].appl 	ArrivedAtDest 	1
scalar IntersectionExampleScenario.node[0].appl 	IntersectionEnterTime 	2.5
scalar IntersectionExampleScenario.node[0].appl 	IntersectionExitTime 	26.287791570969
scalar IntersectionExampleScenario.node[0].appl 	NumberOfCollisions 	0
scalar IntersectionExampleScenario.node[0].nic.phy80211p 	busyTime 	0
scalar IntersectionExampleScenario.node[0].nic.mac1609_4 	ReceivedUnicastPackets 	0
scalar IntersectionExampleScenario.node[0].nic.mac1609_4 	ReceivedBroadcasts 	0
scalar IntersectionExampleScenario.node[0].nic.mac1609_4 	SentPackets 	0
scalar IntersectionExampleScenario.node[0].nic.mac1609_4 	SNIRLostPackets 	0
scalar IntersectionExampleScenario.node[0].nic.mac1609_4 	RXTXLostPackets 	0
scalar IntersectionExampleScenario.node[0].nic.mac1609_4 	TotalLostPackets 	0
scalar IntersectionExampleScenario.node[0].nic.mac1609_4 	DroppedPacketsInMac 	0
scalar IntersectionExampleScenario.node[0].nic.mac1609_4 	TooLittleTime 	0
scalar IntersectionExampleScenario.node[0].nic.mac1609_4 	TimesIntoBackoff 	0
scalar IntersectionExampleScenario.node[0].nic.mac1609_4 	SlotsBackoff 	0
scalar IntersectionExampleScenario.node[0].nic.mac1609_4 	NumInternalContention 	0
scalar IntersectionExampleScenario.node[0].nic.mac1609_4 	totalBusyTime 	0
scalar IntersectionExampleScenario.node[0].veinsmobility 	startTime 	2.5
scalar IntersectionExampleScenario.node[0].veinsmobility 	totalTime 	40.75
scalar IntersectionExampleScenario.node[0].veinsmobility 	stopTime 	43.5
scalar IntersectionExampleScenario.node[0].veinsmobility 	minSpeed 	5.6500000953674
scalar IntersectionExampleScenario.node[0].veinsmobility 	maxSpeed 	15.25
scalar IntersectionExampleScenario.node[0].veinsmobility 	totalDistance 	543.64338374356
scalar IntersectionExampleScenario.node[0].veinsmobility 	totalCO2Emission 	124.01051538148
scalar IntersectionExampleScenario.node[4].appl 	VehicleRemoved 	0
scalar IntersectionExampleScenario.node[4].appl 	ArrivedAtDest 	1
scalar IntersectionExampleScenario.node[4].appl 	IntersectionEnterTime 	18.5
scalar IntersectionExampleScenario.node[4].appl 	IntersectionExitTime 	42.524762685411
scalar IntersectionExampleScenario.node[4].appl 	NumberOfCollisions 	0
scalar IntersectionExampleScenario.node[4].nic.phy80211p 	busyTime 	0
scalar IntersectionExampleScenario.node[4].nic.mac1609_4 	ReceivedUnicastPackets 	0
scalar IntersectionExampleScenario.node[4].nic.mac1609_4 	ReceivedBroadcasts 	0
scalar IntersectionExampleScenario.node[4].nic.mac1609_4 	SentPackets 	0
scalar IntersectionExampleScenario.node[4].nic.mac1609_4 	SNIRLostPackets 	0
scalar IntersectionExampleScenario.node[4].nic.mac1609_4 	RXTXLostPackets 	0
scalar IntersectionExampleScenario.node[4].nic.mac1609_4 	TotalLostPackets 	0
scalar IntersectionExampleScenario.node[4].nic.mac1609_4 	DroppedPacketsInMac 	0
scalar IntersectionExampleScenario.node[4].nic.mac1609_4 	TooLittleTime 	0
scalar IntersectionExampleScenario.node[4].nic.mac1609_4 	TimesIntoBackoff 	0
scalar IntersectionExampleScenario.node[4].nic.mac1609_4 	SlotsBackoff 	0
scalar IntersectionExampleScenario.node[4].nic.mac1609_4 	NumInternalContention 	0
scalar IntersectionExampleScenario.node[4].nic.mac1609_4 	totalBusyTime 	0
scalar IntersectionExampleScenario.node[4].veinsmobility 	startTime 	18.5
scalar IntersectionExampleScenario.node[4].veinsmobility 	totalTime 	41.5
scalar IntersectionExampleScenario.node[4].veinsmobility 	stopTime 	60.25
scalar IntersectionExampleScenario.node[4].veinsmobility 	minSpeed 	5.6500000953674
scalar IntersectionExampleScenario.node[4].veinsmobility 	maxSpeed 	15.02499961853
scalar IntersectionExampleScenario.node[4].veinsmobility 	totalDistance 	545.64548456002
scalar IntersectionExampleScenario.node[4].veinsmobility 	totalCO2Emission 	122.38280771176
scalar IntersectionExampleScenario.node[7].appl 	VehicleRemoved 	0
scalar IntersectionExampleScenario.node[7].appl 	ArrivedAtDest 	1
scalar IntersectionExampleScenario.node[7].appl 	IntersectionEnterTime 	34.25
scalar IntersectionExampleScenario.node[7].appl 	IntersectionExitTime 	57.552638452587
scalar IntersectionExampleScenario.node[7].appl 	NumberOfCollisions 	0
scalar IntersectionExampleScenario.node[7].nic.phy80211p 	busyTime 	0
scalar IntersectionExampleScenario.node[7].nic.mac1609_4 	ReceivedUnicastPackets 	0
scalar IntersectionExampleScenario.node[7].nic.mac1609_4 	ReceivedBroadcasts 	0
scalar IntersectionExampleScenario.node[7].nic.mac1609_4 	SentPackets 	0
scalar IntersectionExampleScenario.node[7].nic.mac1609_4 	SNIRLostPackets 	0
scalar IntersectionExampleScenario.node[7].nic.mac1609_4 	RXTXLostPackets 	0
scalar IntersectionExampleScenario.node[7].nic.mac1609_4 	TotalLostPackets 	0
scalar IntersectionExampleScenario.node[7].nic.mac1609_4 	DroppedPacketsInMac 	0
scalar IntersectionExampleScenario.node[7].nic.mac1609_4 	TooLittleTime 	0
scalar IntersectionExampleScenario.node[7].nic.mac1609_4 	TimesIntoBackoff 	0
scalar IntersectionExampleScenario.node[7].nic.mac1609_4 	SlotsBackoff 	0
scalar IntersectionExampleScenario.node[7].nic.mac1609_4 	NumInternalContention 	0
scalar IntersectionExampleScenario.node[7].nic.mac1609_4 	totalBusyTime 	0
scalar IntersectionExampleScenario.node[7].veinsmobility 	startTime 	34.25
scalar IntersectionExampleScenario.node[7].veinsmobility 	totalTime 	40
scalar IntersectionExampleScenario.node[7].veinsmobility 	stopTime 	74.5
scalar IntersectionExampleScenario.node[7].veinsmobility 	minSpeed 	5.6500000953674
scalar IntersectionExampleScenario.node[7].veinsmobility 	maxSpeed 	15.875
scalar IntersectionExampleScenario.node[7].veinsmobility 	totalDistance 	545.62874100726
scalar IntersectionExampleScenario.node[7].veinsmobility 	totalCO2Emission 	127.12384671915
scalar IntersectionExampleScenario.node[9].appl 	VehicleRemoved 	0
scalar IntersectionExampleScenario.node[9].appl 	ArrivedAtDest 	1
scalar IntersectionExampleScenario.node[9].appl 	IntersectionEnterTime 	35.25
scalar IntersectionExampleScenario.node[9].appl 	IntersectionExitTime 	61.593768039049
scalar IntersectionExampleScenario.node[9].appl 	NumberOfCollisions 	0
scalar IntersectionExampleScenario.node[9].nic.phy80211p 	busyTime 	0
scalar IntersectionExampleScenario.node[9].nic.mac1609_4 	ReceivedUnicastPackets 	0
scalar IntersectionExampleScenario.node[9].nic.mac1609_4 	ReceivedBroadcasts 	0
scalar IntersectionExampleScenario.node[9].nic.mac1609_4 	SentPackets 	0
scalar IntersectionExampleScenario.node[9].nic.mac1609_4 	SNIRLostPackets 	0
scalar IntersectionExampleScenario.node[9].nic.mac1609_4 	RXTXLostPackets 	0
scalar IntersectionExampleScenario.node[9].nic.mac1609_4 	TotalLostPackets 	0
scalar IntersectionExampleScenario.node[9].nic.mac1609_4 	DroppedPacketsInMac 	0
scalar IntersectionExampleScenario.node[9].nic.mac1609_4 	TooLittleTime 	0
scalar IntersectionExampleScenario.node[9].nic.mac1609_4 	TimesIntoBackoff 	0
scalar IntersectionExampleScenario.node[9].nic.mac1609_4 	SlotsBackoff 	0
scalar IntersectionExampleScenario.node[9].nic.mac1609_4 	NumInternalContention 	0
scalar IntersectionExampleScenario.node[9].nic.mac1609_4 	totalBusyTime 	0
scalar IntersectionExampleScenario.node[9].veinsmobility 	startTime 	35.25
scalar IntersectionExampleScenario.node[9].veinsmobility 	totalTime 	43.75
scalar IntersectionExampleScenario.node[9].veinsmobility 	stopTime 	79.25
scalar IntersectionExampleScenario.node[9].veinsmobility 	minSpeed 	5.6500000953674
scalar IntersectionExampleScenario.node[9].veinsmobility 	maxSpeed 	14.883192062378
scalar IntersectionExampleScenario.node[9].veinsmobility 	totalDistance 	568.02891774123
scalar IntersectionExampleScenario.node[9].veinsmobility 	totalCO2Emission 	124.56674647454
scalar IntersectionExampleScenario.node[2].appl 	VehicleRemoved 	0
scalar IntersectionExampleScenario.node[2].appl 	ArrivedAtDest 	1
scalar IntersectionExampleScenario.node[2].appl 	IntersectionEnterTime 	16.5
scalar IntersectionExampleScenario.node[2].appl 	IntersectionExitTime 	68.335652437585
scalar IntersectionExampleScenario.node[2].appl 	NumberOfCollisions 	0
scalar IntersectionExampleScenario.node[2].nic.phy80211p 	busyTime 	0
scalar IntersectionExampleScenario.node[2].nic.mac1609_4 	ReceivedUnicastPackets 	0
scalar IntersectionExampleScenario.node[2].nic.mac1609_4 	ReceivedBroadcasts 	0
scalar IntersectionExampleScenario.node[2].nic.mac1609_4 	SentPackets 	0
scalar IntersectionExampleScenario.node[2].nic.mac1609_4 	SNIRLostPackets 	0
scalar IntersectionExampleScenario.node[2].nic.mac1609_4 	RXTXLostPackets 	0
scalar IntersectionExampleScenario.node[2].nic.mac1609_4 	TotalLostPackets 	0
scalar IntersectionExampleScenario.node[2].nic.mac1609_4 	DroppedPacketsInMac 	0
scalar IntersectionExampleScenario.node[2].nic.mac1609_4 	TooLittleTime 	0
scalar IntersectionExampleScenario.node[2].nic.mac1609_4 	TimesIntoBackoff 	0
scalar IntersectionExampleScenario.node[2].nic.mac1609_4 	SlotsBackoff 	0
scalar IntersectionExampleScenario.node[2].nic.mac1609_4 	NumInternalContention 	0
scalar IntersectionExampleScenario.node[2].nic.mac1609_4 	totalBusyTime 	0
scalar IntersectionExampleScenario.node[2].veinsmobility 	startTime 	16.5
scalar IntersectionExampleScenario.node[2].veinsmobility 	totalTime 	68
scalar IntersectionExampleScenario.node[2].veinsmobility 	stopTime 	84.75
scalar IntersectionExampleScenario.node[2].veinsmobility 	minSpeed 	0
scalar IntersectionExampleScenario.node[2].veinsmobility 	maxSpeed 	15.64999961853
scalar IntersectionExampleScenario.node[2].veinsmobility 	totalDistance 	554.53861236572
scalar IntersectionExampleScenario.node[2].veinsmobility 	totalCO2Emission 	159.14495149869
scalar IntersectionExampleScenario.node[3].appl 	VehicleRemoved 	0
scalar IntersectionExampleScenario.node[3].appl 	ArrivedAtDest 	1
scalar IntersectionExampleScenario.node[3].appl 	IntersectionEnterTime 	17
scalar IntersectionExampleScenario.node[3].appl 	IntersectionExitTime 	70.583808438445
scalar IntersectionExampleScenario.node[3].appl 	NumberOfCollisions 	0
scalar IntersectionExampleScenario.node[3].nic.phy80211p 	busyTime 	0
scalar IntersectionExampleScenario.node[3].nic.mac1609_4 	ReceivedUnicastPackets 	0
scalar IntersectionExampleScenario.node[3].nic.mac1609_4 	ReceivedBroadcasts 	0
scalar IntersectionExampleScenario.node[3].nic.mac1609_4 	SentPackets 	0
scalar IntersectionExampleScenario.node[3].nic.mac1609_4 	SNIRLostPackets 	0
scalar IntersectionExampleScenario.node[3].nic.mac1609_4 	RXTXLostPackets 	0
scalar IntersectionExampleScenario.node[3].nic.mac1609_4 	TotalLostPackets 	0
scalar IntersectionExampleScenario.node[3].nic.mac1609_4 	DroppedPacketsInMac 	0
scalar IntersectionExampleScenario.node[3].nic.mac1609_4 	TooLittleTime 	0
scalar IntersectionExampleScenario.node[3].nic.mac1609_4 	TimesIntoBackoff 	0
scalar IntersectionExampleScenario.node[3].nic.mac1609_4 	SlotsBackoff 	0
scalar IntersectionExampleScenario.node[3].nic.mac1609_4 	NumInternalContention 	0
scalar IntersectionExampleScenario.node[3].nic.mac1609_4 	totalBusyTime 	0
scalar IntersectionExampleScenario.node[3].veinsmobility 	startTime 	17
scalar IntersectionExampleScenario.node[3].veinsmobility 	totalTime 	69.5
scalar IntersectionExampleScenario.node[3].veinsmobility 	stopTime 	86.75
scalar IntersectionExampleScenario.node[3].veinsmobility 	minSpeed 	0
scalar IntersectionExampleScenario.node[3].veinsmobility 	maxSpeed 	15.471047401428
scalar IntersectionExampleScenario.node[3].veinsmobility 	totalDistance 	576.51893615723
scalar IntersectionExampleScenario.node[3].veinsmobility 	totalCO2Emission 	162.90474714181
scalar IntersectionExampleScenario.node[6].appl 	VehicleRemoved 	0
scalar IntersectionExampleScenario.node[6].appl 	ArrivedAtDest 	1
scalar IntersectionExampleScenario.node[6].appl 	IntersectionEnterTime 	30
scalar IntersectionExampleScenario.node[6].appl 	IntersectionExitTime 	72.754881848028
scalar IntersectionExampleScenario.node[6].appl 	NumberOfCollisions 	0
scalar IntersectionExampleScenario.node[6].nic.phy80211p 	busyTime 	0
scalar IntersectionExampleScenario.node[6].nic.mac1609_4 	ReceivedUnicastPackets 	0
scalar IntersectionExampleScenario.node[6].nic.mac1609_4 	ReceivedBroadcasts 	0
scalar IntersectionExampleScenario.node[6].nic.mac1609_4 	SentPackets 	0
scalar IntersectionExampleScenario.node[6].nic.mac1609_4 	SNIRLostPackets 	0
scalar IntersectionExampleScenario.node[6].nic.mac1609_4 	RXTXLostPackets 	0
scalar IntersectionExampleScenario.node[6].nic.mac1609_4 	TotalLostPackets 	0
scalar IntersectionExampleScenario.node[6].nic.mac1609_4 	DroppedPacketsInMac 	0
scalar IntersectionExampleScenario.node[6].nic.mac1609_4 	TooLittleTime 	0
scalar IntersectionExampleScenario.node[6].nic.mac1609_4 	TimesIntoBackoff 	0
scalar IntersectionExampleScenario.node[6].nic.mac1609_4 	SlotsBackoff 	0
scalar IntersectionExampleScenario.node[6].nic.mac1609_4 	NumInternalContention 	0
scalar IntersectionExampleScenario.node[6].nic.mac1609_4 	totalBusyTime 	0
scalar IntersectionExampleScenario.node[6].veinsmobility 	startTime 	30
scalar IntersectionExampleScenario.node[6].veinsmobility 	totalTime 	59
scalar IntersectionExampleScenario.node[6].veinsmobility 	stopTime 	89.25
scalar IntersectionExampleScenario.node[6].veinsmobility 	minSpeed 	0
scalar IntersectionExampleScenario.node[6].veinsmobility 	maxSpeed 	15.875
scalar IntersectionExampleScenario.node[6].veinsmobility 	totalDistance 	542.57556533852
scalar IntersectionExampleScenario.node[6].veinsmobility 	totalCO2Emission 	151.54584992921
scalar IntersectionExampleScenario.node[8].appl 	VehicleRemoved 	0
scalar IntersectionExampleScenario.node[8].appl 	ArrivedAtDest 	1
scalar IntersectionExampleScenario.node[8].appl 	IntersectionEnterTime 	34.75
scalar IntersectionExampleScenario.node[8].appl 	IntersectionExitTime 	89.539439454238
scalar IntersectionExampleScenario.node[8].appl 	NumberOfCollisions 	0
scalar IntersectionExampleScenario.node[8].nic.phy80211p 	busyTime 	0
scalar IntersectionExampleScenario.node[8].nic.mac1609_4 	ReceivedUnicastPackets 	0
scalar IntersectionExampleScenario.node[8].nic.mac1609_4 	ReceivedBroadcasts 	0
scalar IntersectionExampleScenario.node[8].nic.mac1609_4 	SentPackets 	0
scalar IntersectionExampleScenario.node[8].nic.mac1609_4 	SNIRLostPackets 	0
scalar IntersectionExampleScenario.node[8].nic.mac1609_4 	RXTXLostPackets 	0
scalar IntersectionExampleScenario.node[8].nic.mac1609_4 	TotalLostPackets 	0
scalar IntersectionExampleScenario.node[8].nic.mac1609_4 	DroppedPacketsInMac 	0
scalar IntersectionExampleScenario.node[8].nic.mac1609_4 	TooLittleTime 	0
scalar IntersectionExampleScenario.node[8].nic.mac1609_4 	TimesIntoBackoff 	0
scalar IntersectionExampleScenario.node[8].nic.mac1609_4 	SlotsBackoff 	0
scalar IntersectionExampleScenario.node[8].nic.mac1609_4 	NumInternalContention 	0
scalar IntersectionExampleScenario.node[8].nic.mac1609_4 	totalBusyTime 	0
scalar IntersectionExampleScenario.node[8].veinsmobility 	startTime 	34.75
scalar IntersectionExampleScenario.node[8].veinsmobility 	totalTime 	71.5
scalar IntersectionExampleScenario.node[8].veinsmobility 	stopTime 	106.5
scalar IntersectionExampleScenario.node[8].veinsmobility 	minSpeed 	0
scalar IntersectionExampleScenario.node[8].veinsmobility 	maxSpeed 	15.875
scalar IntersectionExampleScenario.node[8].veinsmobility 	totalDistance 	546.14742947966
scalar IntersectionExampleScenario.node[8].veinsmobility 	totalCO2Emission 	163.85318789864
scalar IntersectionExampleScenario.node[1].appl 	VehicleRemoved 	0
scalar IntersectionExampleScenario.node[1].appl 	ArrivedAtDest 	1
scalar IntersectionExampleScenario.node[1].appl 	IntersectionEnterTime 	15.75
scalar IntersectionExampleScenario.node[1].appl 	IntersectionExitTime 	90.293195090635
scalar IntersectionExampleScenario.node[1].appl 	NumberOfCollisions 	0
scalar IntersectionExampleScenario.node[1].nic.phy80211p 	busyTime 	0
scalar IntersectionExampleScenario.node[1].nic.mac1609_4 	ReceivedUnicastPackets 	0
scalar IntersectionExampleScenario.node[1].nic.mac1609_4 	ReceivedBroadcasts 	0
scalar IntersectionExampleScenario.node[1].nic.mac1609_4 	SentPackets 	0
scalar IntersectionExampleScenario.node[1].nic.mac1609_4 	SNIRLostPackets 	0
scalar IntersectionExampleScenario.node[1].nic.mac1609_4 	RXTXLostPackets 	0
scalar IntersectionExampleScenario.node[1].nic.mac1609_4 	TotalLostPackets 	0
scalar IntersectionExampleScenario.node[1].nic.mac1609_4 	DroppedPacketsInMac 	0
scalar IntersectionExampleScenario.node[1].nic.mac1609_4 	TooLittleTime 	0
scalar IntersectionExampleScenario.node[1].nic.mac1609_4 	TimesIntoBackoff 	0
scalar IntersectionExampleScenario.node[1].nic.mac1609_4 	SlotsBackoff 	0
scalar IntersectionExampleScenario.node[1].nic.mac1609_4 	NumInternalContention 	0
scalar IntersectionExampleScenario.node[1].nic.mac1609_4 	totalBusyTime 	0
scalar IntersectionExampleScenario.node[1].veinsmobility 	startTime 	15.75
scalar IntersectionExampleScenario.node[1].veinsmobility 	totalTime 	90.5
scalar IntersectionExampleScenario.node[1].veinsmobility 	stopTime 	106.5
scalar IntersectionExampleScenario.node[1].veinsmobility 	minSpeed 	0
scalar IntersectionExampleScenario.node[1].veinsmobility 	maxSpeed 	15.64999961853
scalar IntersectionExampleScenario.node[1].veinsmobility 	totalDistance 	553.61804199219
scalar IntersectionExampleScenario.node[1].veinsmobility 	totalCO2Emission 	184.15845250114
scalar IntersectionExampleScenario.node[5].appl 	VehicleRemoved 	0
scalar IntersectionExampleScenario.node[5].appl 	ArrivedAtDest 	1
scalar IntersectionExampleScenario.node[5].appl 	IntersectionEnterTime 	20.75
scalar IntersectionExampleScenario.node[5].appl 	IntersectionExitTime 	91.086540327116
scalar IntersectionExampleScenario.node[5].appl 	NumberOfCollisions 	0
scalar IntersectionExampleScenario.node[5].nic.phy80211p 	busyTime 	0
scalar IntersectionExampleScenario.node[5].nic.mac1609_4 	ReceivedUnicastPackets 	0
scalar IntersectionExampleScenario.node[5].nic.mac1609_4 	ReceivedBroadcasts 	0
scalar IntersectionExampleScenario.node[5].nic.mac1609_4 	SentPackets 	0
scalar IntersectionExampleScenario.node[5].nic.mac1609_4 	SNIRLostPackets 	0
scalar IntersectionExampleScenario.node[5].nic.mac1609_4 	RXTXLostPackets 	0
scalar IntersectionExampleScenario.node[5].nic.mac1609_4 	TotalLostPackets 	0
scalar IntersectionExampleScenario.node[5].nic.mac1609_4 	DroppedPacketsInMac 	0
scalar IntersectionExampleScenario.node[5].nic.mac1609_4 	TooLittleTime 	0
scalar IntersectionExampleScenario.node[5].nic.mac1609_4 	TimesIntoBackoff 	0
scalar IntersectionExampleScenario.node[5].nic.mac1609_4 	SlotsBackoff 	0
scalar IntersectionExampleScenario.node[5].nic.mac1609_4 	NumInternalContention 	0
scalar IntersectionExampleScenario.node[5].nic.mac1609_4 	totalBusyTime 	0
scalar IntersectionExampleScenario.node[5].veinsmobility 	startTime 	20.75
scalar IntersectionExampleScenario.node[5].veinsmobility 	totalTime 	86.5
scalar IntersectionExampleScenario.node[5].veinsmobility 	stopTime 	107.5
scalar IntersectionExampleScenario.node[5].veinsmobility 	minSpeed 	0
scalar IntersectionExampleScenario.node[5].veinsmobility 	maxSpeed 	15.938349723816
scalar IntersectionExampleScenario.node[5].veinsmobility 	totalDistance 	545.15975601196
scalar IntersectionExampleScenario.node[5].veinsmobility 	totalCO2Emission 	182.94220368173
scalar IntersectionExampleScenario.node[10].appl 	VehicleRemoved 	0
scalar IntersectionExampleScenario.node[10].appl 	ArrivedAtDest 	1
scalar IntersectionExampleScenario.node[10].appl 	IntersectionEnterTime 	41.75
scalar IntersectionExampleScenario.node[10].appl 	IntersectionExitTime 	92.055766812584
scalar IntersectionExampleScenario.node[10].appl 	NumberOfCollisions 	0
scalar IntersectionExampleScenario.node[10].nic.phy80211p 	busyTime 	0
scalar IntersectionExampleScenario.node[10].nic.mac1609_4 	ReceivedUnicastPackets 	0
scalar IntersectionExampleScenario.node[10].nic.mac1609_4 	ReceivedBroadcasts 	0
scalar IntersectionExampleScenario.node[10].nic.mac1609_4 	SentPackets 	0
scalar IntersectionExampleScenario.node[10].nic.mac1609_4 	SNIRLostPackets 	0
scalar IntersectionExampleScenario.node[10].nic.mac1609_4 	RXTXLostPackets 	0
scalar IntersectionExampleScenario.node[10].nic.mac1609_4 	TotalLostPackets 	0
scalar IntersectionExampleScenario.node[10].nic.mac1609_4 	DroppedPacketsInMac 	0
scalar IntersectionExampleScenario.node[10].nic.mac1609_4 	TooLittleTime 	0
scalar IntersectionExampleScenario.node[10].nic.mac1609_4 	TimesIntoBackoff 	0
scalar IntersectionExampleScenario.node[10].nic.mac1609_4 	SlotsBackoff 	0
scalar IntersectionExampleScenario.node[10].nic.mac1609_4 	NumInternalContention 	0
scalar IntersectionExampleScenario.node[10].nic.mac1609_4 	totalBusyTime 	0
scalar IntersectionExampleScenario.node[10].veinsmobility 	startTime 	41.75
scalar IntersectionExampleScenario.node[10].veinsmobility 	totalTime 	67
scalar IntersectionExampleScenario.node[10].veinsmobility 	stopTime 	109
scalar IntersectionExampleScenario.node[10].veinsmobility 	minSpeed 	0
scalar IntersectionExampleScenario.node[10].veinsmobility 	maxSpeed 	15.875
scalar IntersectionExampleScenario.node[10].veinsmobility 	totalDistance 	545.99382068238
scalar IntersectionExampleScenario.node[10].veinsmobility 	totalCO2Emission 	156.8044969251
scalar IntersectionExampleScenario.node[14].appl 	VehicleRemoved 	0
scalar IntersectionExampleScenario.node[14].appl 	ArrivedAtDest 	1
scalar IntersectionExampleScenario.node[14].appl 	IntersectionEnterTime 	53.75
scalar IntersectionExampleScenario.node[14].appl 	IntersectionExitTime 	94.282622372673
scalar IntersectionExampleScenario.node[14].appl 	NumberOfCollisions 	0
scalar IntersectionExampleScenario.node[14].nic.phy80211p 	busyTime 	0
scalar IntersectionExampleScenario.node[14].nic.mac1609_4 	ReceivedUnicastPackets 	0
scalar IntersectionExampleScenario.node[14].nic.mac1609_4 	ReceivedBroadcasts 	0
scalar IntersectionExampleScenario.node[14].nic.mac1609_4 	SentPackets 	0
scalar IntersectionExampleScenario.node[14].nic.mac1609_4 	SNIRLostPackets 	0
scalar IntersectionExampleScenario.node[14].nic.mac1609_4 	RXTXLostPackets 	0
scalar IntersectionExampleScenario.node[14].nic.mac1609_4 	TotalLostPackets 	0
scalar IntersectionExampleScenario.node[14].nic.mac1609_4 	DroppedPacketsInMac 	0
scalar IntersectionExampleScenario.node[14].nic.mac1609_4 	TooLittleTime 	0
scalar IntersectionExampleScenario.node[14].nic.mac1609_4 	TimesIntoBackoff 	0
scalar IntersectionExampleScenario.node[14].nic.mac1609_4 	SlotsBackoff 	0
scalar IntersectionExampleScenario.node[14].nic.mac1609_4 	NumInternalContention 	0
scalar IntersectionExampleScenario.node[14].nic.mac1609_4 	totalBusyTime 	0
scalar IntersectionExampleScenario.node[14].veinsmobility 	startTime 	53.75
scalar IntersectionExampleScenario.node[14].veinsmobility 	totalTime 	57
scalar IntersectionExampleScenario.node[14].veinsmobility 	stopTime 	111
scalar IntersectionExampleScenario.node[14].veinsmobility 	minSpeed 	0
scalar IntersectionExampleScenario.node[14].veinsmobility 	maxSpeed 	15.64999961853
scalar IntersectionExampleScenario.node[14].veinsmobility 	totalDistance 	550.00125912707
scalar IntersectionExampleScenario.node[14].veinsmobility 	totalCO2Emission 	145.90888462329
scalar IntersectionExampleScenario.node[12].appl 	VehicleRemoved 	0
scalar IntersectionExampleScenario.node[12].appl 	ArrivedAtDest 	1
scalar IntersectionExampleScenario.node[12].appl 	IntersectionEnterTime 	45.75
scalar IntersectionExampleScenario.node[12].appl 	IntersectionExitTime 	96.510452875664
scalar IntersectionExampleScenario.node[12].appl 	NumberOfCollisions 	0
scalar IntersectionExampleScenario.node[12].nic.phy80211p 	busyTime 	0
scalar IntersectionExampleScenario.node[12].nic.mac1609_4 	ReceivedUnicastPackets 	0
scalar IntersectionExampleScenario.node[12].nic.mac1609_4 	ReceivedBroadcasts 	0
scalar IntersectionExampleScenario.node[12].nic.mac1609_4 	SentPackets 	0
scalar IntersectionExampleScenario.node[12].nic.mac1609_4 	SNIRLostPackets 	0
scalar IntersectionExampleScenario.node[12].nic.mac1609_4 	RXTXLostPackets 	0
scalar IntersectionExampleScenario.node[12].nic.mac1609_4 	TotalLostPackets 	0
scalar IntersectionExampleScenario.node[12].nic.mac1609_4 	DroppedPacketsInMac 	0
scalar IntersectionExampleScenario.node[12].nic.mac1609_4 	TooLittleTime 	0
scalar IntersectionExampleScenario.node[12].nic.mac1609_4 	TimesIntoBackoff 	0
scalar IntersectionExampleScenario.node[12].nic.mac1609_4 	SlotsBackoff 	0
scalar IntersectionExampleScenario.node[12].nic.mac1609_4 	NumInternalContention 	0
scalar IntersectionExampleScenario.node[12].nic.mac1609_4 	totalBusyTime 	0
scalar IntersectionExampleScenario.node[12].veinsmobility 	startTime 	45.75
scalar IntersectionExampleScenario.node[12].veinsmobility 	totalTime 	67.5
scalar IntersectionExampleScenario.node[12].veinsmobility 	stopTime 	113.5
scalar IntersectionExampleScenario.node[12].veinsmobility 	minSpeed 	0
scalar IntersectionExampleScenario.node[12].veinsmobility 	maxSpeed 	15.64999961853
scalar IntersectionExampleScenario.node[12].veinsmobility 	totalDistance 	552.29627387693
scalar IntersectionExampleScenario.node[12].veinsmobility 	totalCO2Emission 	165.28648396976
scalar IntersectionExampleScenario.node[17].appl 	VehicleRemoved 	0
scalar IntersectionExampleScenario.node[17].appl 	ArrivedAtDest 	1
scalar IntersectionExampleScenario.node[17].appl 	IntersectionEnterTime 	63
scalar IntersectionExampleScenario.node[17].appl 	IntersectionExitTime 	96.31759852395
scalar IntersectionExampleScenario.node[17].appl 	NumberOfCollisions 	0
scalar IntersectionExampleScenario.node[17].nic.phy80211p 	busyTime 	0
scalar IntersectionExampleScenario.node[17].nic.mac1609_4 	ReceivedUnicastPackets 	0
scalar IntersectionExampleScenario.node[17].nic.mac1609_4 	ReceivedBroadcasts 	0
scalar IntersectionExampleScenario.node[17].nic.mac1609_4 	SentPackets 	0
scalar IntersectionExampleScenario.node[17].nic.mac1609_4 	SNIRLostPackets 	0
scalar IntersectionExampleScenario.node[17].nic.mac1609_4 	RXTXLostPackets 	0
scalar IntersectionExampleScenario.node[17].nic.mac1609_4 	TotalLostPackets 	0
scalar IntersectionExampleScenario.node[17].nic.mac1609_4 	DroppedPacketsInMac 	0
scalar IntersectionExampleScenario.node[17].nic.mac1609_4 	TooLittleTime 	0
scalar IntersectionExampleScenario.node[17].nic.mac1609_4 	TimesIntoBackoff 	0
scalar IntersectionExampleScenario.node[17].nic.mac1609_4 	SlotsBackoff 	0
scalar IntersectionExampleScenario.node[17].nic.mac1609_4 	NumInternalContention 	0
scalar IntersectionExampleScenario.node[17].nic.mac1609_4 	totalBusyTime 	0
scalar IntersectionExampleScenario.node[17].veinsmobility 	startTime 	63
scalar IntersectionExampleScenario.node[17].veinsmobility 	totalTime 	50.25
scalar IntersectionExampleScenario.node[17].veinsmobility 	stopTime 	113.5
scalar IntersectionExampleScenario.node[17].veinsmobility 	minSpeed 	2.4398374557495
scalar IntersectionExampleScenario.node[17].veinsmobility 	maxSpeed 	15.25
scalar IntersectionExampleScenario.node[17].veinsmobility 	totalDistance 	545.85813496423
scalar IntersectionExampleScenario.node[17].veinsmobility 	totalCO2Emission 	139.28883860817
scalar IntersectionExampleScenario.node[18].appl 	VehicleRemoved 	0
scalar IntersectionExampleScenario.node[18].appl 	ArrivedAtDest 	1
scalar IntersectionExampleScenario.node[18].appl 	IntersectionEnterTime 	63.5
scalar IntersectionExampleScenario.node[18].appl 	IntersectionExitTime 	98.067303086835
scalar IntersectionExampleScenario.node[18].appl 	NumberOfCollisions 	0
scalar IntersectionExampleScenario.node[18].nic.phy80211p 	busyTime 	0
scalar IntersectionExampleScenario.node[18].nic.mac1609_4 	ReceivedUnicastPackets 	0
scalar IntersectionExampleScenario.node[18].nic.mac1609_4 	ReceivedBroadcasts 	0
scalar IntersectionExampleScenario.node[18].nic.mac1609_4 	SentPackets 	0
scalar IntersectionExampleScenario.node[18].nic.mac1609_4 	SNIRLostPackets 	0
scalar IntersectionExampleScenario.node[18].nic.mac1609_4 	RXTXLostPackets 	0
scalar IntersectionExampleScenario.node[18].nic.mac1609_4 	TotalLostPackets 	0
scalar IntersectionExampleScenario.node[18].nic.mac1609_4 	DroppedPacketsInMac 	0
scalar IntersectionExampleScenario.node[18].nic.mac1609_4 	TooLittleTime 	0
scalar IntersectionExampleScenario.node[18].nic.mac1609_4 	TimesIntoBackoff 	0
scalar IntersectionExampleScenario.node[18].nic.mac1609_4 	SlotsBackoff 	0
scalar IntersectionExampleScenario.node[18].nic.mac1609_4 	NumInternalContention 	0
scalar IntersectionExampleScenario.node[18].nic.mac1609_4 	totalBusyTime 	0
scalar IntersectionExampleScenario.node[18].veinsmobility 	startTime 	63.5
scalar IntersectionExampleScenario.node[18].veinsmobility 	totalTime 	50.75
scalar IntersectionExampleScenario.node[18].veinsmobility 	stopTime 	114.5
scalar IntersectionExampleScenario.node[18].veinsmobility 	minSpeed 	2.0637502670288
scalar IntersectionExampleScenario.node[18].veinsmobility 	maxSpeed 	16.564517974854
scalar IntersectionExampleScenario.node[18].veinsmobility 	totalDistance 	549.39194496007
scalar IntersectionExampleScenario.node[18].veinsmobility 	totalCO2Emission 	156.23621471611
scalar IntersectionExampleScenario.node[19].appl 	VehicleRemoved 	0
scalar IntersectionExampleScenario.node[19].appl 	ArrivedAtDest 	1
scalar IntersectionExampleScenario.node[19].appl 	IntersectionEnterTime 	64.75
scalar IntersectionExampleScenario.node[19].appl 	IntersectionExitTime 	99.329729559831
scalar IntersectionExampleScenario.node[19].appl 	NumberOfCollisions 	0
scalar IntersectionExampleScenario.node[19].nic.phy80211p 	busyTime 	0
scalar IntersectionExampleScenario.node[19].nic.mac1609_4 	ReceivedUnicastPackets 	0
scalar IntersectionExampleScenario.node[19].nic.mac1609_4 	ReceivedBroadcasts 	0
scalar IntersectionExampleScenario.node[19].nic.mac1609_4 	SentPackets 	0
scalar IntersectionExampleScenario.node[19].nic.mac1609_4 	SNIRLostPackets 	0
scalar IntersectionExampleScenario.node[19].nic.mac1609_4 	RXTXLostPackets 	0
scalar IntersectionExampleScenario.node[19].nic.mac1609_4 	TotalLostPackets 	0
scalar IntersectionExampleScenario.node[19].nic.mac1609_4 	DroppedPacketsInMac 	0
scalar IntersectionExampleScenario.node[19].nic.mac1609_4 	TooLittleTime 	0
scalar IntersectionExampleScenario.node[19].nic.mac1609_4 	TimesIntoBackoff 	0
scalar IntersectionExampleScenario.node[19].nic.mac1609_4 	SlotsBackoff 	0
scalar IntersectionExampleScenario.node[19].nic.mac1609_4 	NumInternalContention 	0
scalar IntersectionExampleScenario.node[19].nic.mac1609_4 	totalBusyTime 	0
scalar IntersectionExampleScenario.node[19].veinsmobility 	startTime 	64.75
scalar IntersectionExampleScenario.node[19].veinsmobility 	totalTime 	51.5
scalar IntersectionExampleScenario.node[19].veinsmobility 	stopTime 	116.5
scalar IntersectionExampleScenario.node[19].veinsmobility 	minSpeed 	2.4142596721649
scalar IntersectionExampleScenario.node[19].veinsmobility 	maxSpeed 	15.091420173645
scalar IntersectionExampleScenario.node[19].veinsmobility 	totalDistance 	562.40724515796
scalar IntersectionExampleScenario.node[19].veinsmobility 	totalCO2Emission 	146.62325370852
scalar IntersectionExampleScenario.node[20].appl 	VehicleRemoved 	0
scalar IntersectionExampleScenario.node[20].appl 	ArrivedAtDest 	1
scalar IntersectionExampleScenario.node[20].appl 	IntersectionEnterTime 	76.25
scalar IntersectionExampleScenario.node[20].appl 	IntersectionExitTime 	101.84386780465
scalar IntersectionExampleScenario.node[20].appl 	NumberOfCollisions 	0
scalar IntersectionExampleScenario.node[20].nic.phy80211p 	busyTime 	0
scalar IntersectionExampleScenario.node[20].nic.mac1609_4 	ReceivedUnicastPackets 	0
scalar IntersectionExampleScenario.node[20].nic.mac1609_4 	ReceivedBroadcasts 	0
scalar IntersectionExampleScenario.node[20].nic.mac1609_4 	SentPackets 	0
scalar IntersectionExampleScenario.node[20].nic.mac1609_4 	SNIRLostPackets 	0
scalar IntersectionExampleScenario.node[20].nic.mac1609_4 	RXTXLostPackets 	0
scalar IntersectionExampleScenario.node[20].nic.mac1609_4 	TotalLostPackets 	0
scalar IntersectionExampleScenario.node[20].nic.mac1609_4 	DroppedPacketsInMac 	0
scalar IntersectionExampleScenario.node[20].nic.mac1609_4 	TooLittleTime 	0
scalar IntersectionExampleScenario.node[20].nic.mac1609_4 	TimesIntoBackoff 	0
scalar IntersectionExampleScenario.node[20].nic.mac1609_4 	SlotsBackoff 	0
scalar IntersectionExampleScenario.node[20].nic.mac1609_4 	NumInternalContention 	0
scalar IntersectionExampleScenario.node[20].nic.mac1609_4 	totalBusyTime 	0
scalar IntersectionExampleScenario.node[20].veinsmobility 	startTime 	76.25
scalar IntersectionExampleScenario.node[20].veinsmobility 	totalTime 	41.5
scalar IntersectionExampleScenario.node[20].veinsmobility 	stopTime 	118
scalar IntersectionExampleScenario.node[20].veinsmobility 	minSpeed 	5.6500000953674
scalar IntersectionExampleScenario.node[20].veinsmobility 	maxSpeed 	16.27499961853
scalar IntersectionExampleScenario.node[20].veinsmobility 	totalDistance 	542.48756479981
scalar IntersectionExampleScenario.node[20].veinsmobility 	totalCO2Emission 	137.53530477777
scalar IntersectionExampleScenario.node[22].appl 	VehicleRemoved 	0
scalar IntersectionExampleScenario.node[22].appl 	ArrivedAtDest 	1
scalar IntersectionExampleScenario.node[22].appl 	IntersectionEnterTime 	88.75
scalar IntersectionExampleScenario.node[22].appl 	IntersectionExitTime 	112.01434324624
scalar IntersectionExampleScenario.node[22].appl 	NumberOfCollisions 	0
scalar IntersectionExampleScenario.node[22].nic.phy80211p 	busyTime 	0
scalar IntersectionExampleScenario.node[22].nic.mac1609_4 	ReceivedUnicastPackets 	0
scalar IntersectionExampleScenario.node[22].nic.mac1609_4 	ReceivedBroadcasts 	0
scalar IntersectionExampleScenario.node[22].nic.mac1609_4 	SentPackets 	0
scalar IntersectionExampleScenario.node[22].nic.mac1609_4 	SNIRLostPackets 	0
scalar IntersectionExampleScenario.node[22].nic.mac1609_4 	RXTXLostPackets 	0
scalar IntersectionExampleScenario.node[22].nic.mac1609_4 	TotalLostPackets 	0
scalar IntersectionExampleScenario.node[22].nic.mac1609_4 	DroppedPacketsInMac 	0
scalar IntersectionExampleScenario.node[22].nic.mac1609_4 	TooLittleTime 	0
scalar IntersectionExampleScenario.node[22].nic.mac1609_4 	TimesIntoBackoff 	0
scalar IntersectionExampleScenario.node[22].nic.mac1609_4 	SlotsBackoff 	0
scalar IntersectionExampleScenario.node[22].nic.mac1609_4 	NumInternalContention 	0
scalar IntersectionExampleScenario.node[22].nic.mac1609_4 	totalBusyTime 	0
scalar IntersectionExampleScenario.node[22].veinsmobility 	startTime 	88.75
scalar IntersectionExampleScenario.node[22].veinsmobility 	totalTime 	40
scalar IntersectionExampleScenario.node[22].veinsmobility 	stopTime 	129
scalar IntersectionExampleScenario.node[22].veinsmobility 	minSpeed 	5.6500000953674
scalar IntersectionExampleScenario.node[22].veinsmobility 	maxSpeed 	15.875
scalar IntersectionExampleScenario.node[22].veinsmobility 	totalDistance 	546.82685657734
scalar IntersectionExampleScenario.node[22].veinsmobility 	totalCO2Emission 	127.54478611268
scalar IntersectionExampleScenario.node[25].appl 	VehicleRemoved 	0
scalar IntersectionExampleScenario.node[25].appl 	ArrivedAtDest 	1
scalar IntersectionExampleScenario.node[25].appl 	IntersectionEnterTime 	91
scalar IntersectionExampleScenario.node[25].appl 	IntersectionExitTime 	113.8607427619
scalar IntersectionExampleScenario.node[25].appl 	NumberOfCollisions 	0
scalar IntersectionExampleScenario.node[25].nic.phy80211p 	busyTime 	0
scalar IntersectionExampleScenario.node[25].nic.mac1609_4 	ReceivedUnicastPackets 	0
scalar IntersectionExampleScenario.node[25].nic.mac1609_4 	ReceivedBroadcasts 	0
scalar IntersectionExampleScenario.node[25].nic.mac1609_4 	SentPackets 	0
scalar IntersectionExampleScenario.node[25].nic.mac1609_4 	SNIRLostPackets 	0
scalar IntersectionExampleScenario.node[25].nic.mac1609_4 	RXTXLostPackets 	0
scalar IntersectionExampleScenario.node[25].nic.mac1609_4 	TotalLostPackets 	0
scalar IntersectionExampleScenario.node[25].nic.mac1609_4 	DroppedPacketsInMac 	0
scalar IntersectionExampleScenario.node[25].nic.mac1609_4 	TooLittleTime 	0
scalar IntersectionExampleScenario.node[25].nic.mac1609_4 	TimesIntoBackoff 	0
scalar IntersectionExampleScenario.node[25].nic.mac1609_4 	SlotsBackoff 	0
scalar IntersectionExampleScenario.node[25].nic.mac1609_4 	NumInternalContention 	0
scalar IntersectionExampleScenario.node[25].nic.mac1609_4 	totalBusyTime 	0
scalar IntersectionExampleScenario.node[25].veinsmobility 	startTime 	91
scalar IntersectionExampleScenario.node[25].veinsmobility 	totalTime 	38.75
scalar IntersectionExampleScenario.node[25].veinsmobility 	stopTime 	130
scalar IntersectionExampleScenario.node[25].veinsmobility 	minSpeed 	5.6500000953674
scalar IntersectionExampleScenario.node[25].veinsmobility 	maxSpeed 	16.5
scalar IntersectionExampleScenario.node[25].veinsmobility 	totalDistance 	545.36105434103
scalar IntersectionExampleScenario.node[25].veinsmobility 	totalCO2Emission 	132.29937761032
scalar IntersectionExampleScenario.node[26].appl 	VehicleRemoved 	0
scalar IntersectionExampleScenario.node[26].appl 	ArrivedAtDest 	1
scalar IntersectionExampleScenario.node[26].appl 	IntersectionEnterTime 	94
scalar IntersectionExampleScenario.node[26].appl 	IntersectionExitTime 	117.5019776551
scalar IntersectionExampleScenario.node[26].appl 	NumberOfCollisions 	0
scalar IntersectionExampleScenario.node[26].nic.phy80211p 	busyTime 	0
scalar IntersectionExampleScenario.node[26].nic.mac1609_4 	ReceivedUnicastPackets 	0
scalar IntersectionExampleScenario.node[26].nic.mac1609_4 	ReceivedBroadcasts 	0
scalar IntersectionExampleScenario.node[26].nic.mac1609_4 	SentPackets 	0
scalar IntersectionExampleScenario.node[26].nic.mac1609_4 	SNIRLostPackets 	0
scalar IntersectionExampleScenario.node[26].nic.mac1609_4 	RXTXLostPackets 	0
scalar IntersectionExampleScenario.node[26].nic.mac1609_4 	TotalLostPackets 	0
scalar IntersectionExampleScenario.node[26].nic.mac1609_4 	DroppedPacketsInMac 	0
scalar IntersectionExampleScenario.node[26].nic.mac1609_4 	TooLittleTime 	0
scalar IntersectionExampleScenario.node[26].nic.mac1609_4 	TimesIntoBackoff 	0
scalar IntersectionExampleScenario.node[26].nic.mac1609_4 	SlotsBackoff 	0
scalar IntersectionExampleScenario.node[26].nic.mac1609_4 	NumInternalContention 	0
scalar IntersectionExampleScenario.node[26].nic.mac1609_4 	totalBusyTime 	0
scalar IntersectionExampleScenario.node[26].veinsmobility 	startTime 	94
scalar IntersectionExampleScenario.node[26].veinsmobility 	totalTime 	39.5
scalar IntersectionExampleScenario.node[26].veinsmobility 	stopTime 	133.75
scalar IntersectionExampleScenario.node[26].veinsmobility 	minSpeed 	5.6500000953674
scalar IntersectionExampleScenario.node[26].veinsmobility 	maxSpeed 	15.64999961853
scalar IntersectionExampleScenario.node[26].veinsmobility 	totalDistance 	564.70050048828
scalar IntersectionExampleScenario.node[26].veinsmobility 	totalCO2Emission 	119.58257880104
scalar IntersectionExampleScenario.node[11].appl 	VehicleRemoved 	0
scalar IntersectionExampleScenario.node[11].appl 	ArrivedAtDest 	1
scalar IntersectionExampleScenario.node[11].appl 	IntersectionEnterTime 	45
scalar IntersectionExampleScenario.node[11].appl 	IntersectionExitTime 	124.51202153237
scalar IntersectionExampleScenario.node[11].appl 	NumberOfCollisions 	0
scalar IntersectionExampleScenario.node[11].nic.phy80211p 	busyTime 	0
scalar IntersectionExampleScenario.node[11].nic.mac1609_4 	ReceivedUnicastPackets 	0
scalar IntersectionExampleScenario.node[11].nic.mac1609_4 	ReceivedBroadcasts 	0
scalar IntersectionExampleScenario.node[11].nic.mac1609_4 	SentPackets 	0
scalar IntersectionExampleScenario.node[11].nic.mac1609_4 	SNIRLostPackets 	0
scalar IntersectionExampleScenario.node[11].nic.mac1609_4 	RXTXLostPackets 	0
scalar IntersectionExampleScenario.node[11].nic.mac1609_4 	TotalLostPackets 	0
scalar IntersectionExampleScenario.node[11].nic.mac1609_4 	DroppedPacketsInMac 	0
scalar IntersectionExampleScenario.node[11].nic.mac1609_4 	TooLittleTime 	0
scalar IntersectionExampleScenario.node[11].nic.mac1609_4 	TimesIntoBackoff 	0
scalar IntersectionExampleScenario.node[11].nic.mac1609_4 	SlotsBackoff 	0
scalar IntersectionExampleScenario.node[11].nic.mac1609_4 	NumInternalContention 	0
scalar IntersectionExampleScenario.node[11].nic.mac1609_4 	totalBusyTime 	0
scalar IntersectionExampleScenario.node[11].veinsmobility 	startTime 	45
scalar IntersectionExampleScenario.node[11].veinsmobility 	totalTime 	95.5
scalar IntersectionExampleScenario.node[11].veinsmobility 	stopTime 	140.75
scalar IntersectionExampleScenario.node[11].veinsmobility 	minSpeed 	0
scalar IntersectionExampleScenario.node[11].veinsmobility 	maxSpeed 	16.5
scalar IntersectionExampleScenario.node[11].veinsmobility 	totalDistance 	543.0530767575
scalar IntersectionExampleScenario.node[11].veinsmobility 	totalCO2Emission 	193.368957648
scalar IntersectionExampleScenario.node[13].appl 	VehicleRemoved 	0
scalar IntersectionExampleScenario.node[13].appl 	ArrivedAtDest 	1
scalar IntersectionExampleScenario.node[13].appl 	IntersectionEnterTime 	52
scalar IntersectionExampleScenario.node[13].appl 	IntersectionExitTime 	127.57304864048
scalar IntersectionExampleScenario.node[13].appl 	NumberOfCollisions 	0
scalar IntersectionExampleScenario.node[13].nic.phy80211p 	busyTime 	0
scalar IntersectionExampleScenario.node[13].nic.mac1609_4 	ReceivedUnicastPackets 	0
scalar IntersectionExampleScenario.node[13].nic.mac1609_4 	ReceivedBroadcasts 	0
scalar IntersectionExampleScenario.node[13].nic.mac1609_4 	SentPackets 	0
scalar IntersectionExampleScenario.node[13].nic.mac1609_4 	SNIRLostPackets 	0
scalar IntersectionExampleScenario.node[13].nic.mac1609_4 	RXTXLostPackets 	0
scalar IntersectionExampleScenario.node[13].nic.mac1609_4 	TotalLostPackets 	0
scalar IntersectionExampleScenario.node[13].nic.mac1609_4 	DroppedPacketsInMac 	0
scalar IntersectionExampleScenario.node[13].nic.mac1609_4 	TooLittleTime 	0
scalar IntersectionExampleScenario.node[13].nic.mac1609_4 	TimesIntoBackoff 	0
scalar IntersectionExampleScenario.node[13].nic.mac1609_4 	SlotsBackoff 	0
scalar IntersectionExampleScenario.node[13].nic.mac1609_4 	NumInternalContention 	0
scalar IntersectionExampleScenario.node[13].nic.mac1609_4 	totalBusyTime 	0
scalar IntersectionExampleScenario.node[13].veinsmobility 	startTime 	52
scalar IntersectionExampleScenario.node[13].veinsmobility 	totalTime 	92.25
scalar IntersectionExampleScenario.node[13].veinsmobility 	stopTime 	144.5
scalar IntersectionExampleScenario.node[13].veinsmobility 	minSpeed 	0
scalar IntersectionExampleScenario.node[13].veinsmobility 	maxSpeed 	15.64999961853
scalar IntersectionExampleScenario.node[13].veinsmobility 	totalDistance 	545.33530471447
scalar IntersectionExampleScenario.node[13].veinsmobility 	totalCO2Emission 	181.1183998127
scalar IntersectionExampleScenario.node[15].appl 	VehicleRemoved 	0
scalar IntersectionExampleScenario.node[15].appl 	ArrivedAtDest 	1
scalar IntersectionExampleScenario.node[15].appl 	IntersectionEnterTime 	54.75
scalar IntersectionExampleScenario.node[15].appl 	IntersectionExitTime 	129.81163244919
scalar IntersectionExampleScenario.node[15].appl 	NumberOfCollisions 	0
scalar IntersectionExampleScenario.node[15].nic.phy80211p 	busyTime 	0
scalar IntersectionExampleScenario.node[15].nic.mac1609_4 	ReceivedUnicastPackets 	0
scalar IntersectionExampleScenario.node[15].nic.mac1609_4 	ReceivedBroadcasts 	0
scalar IntersectionExampleScenario.node[15].nic.mac1609_4 	SentPackets 	0
scalar IntersectionExampleScenario.node[15].nic.mac1609_4 	SNIRLostPackets 	0
scalar IntersectionExampleScenario.node[15].nic.mac1609_4 	RXTXLostPackets 	0
scalar IntersectionExampleScenario.node[15].nic.mac1609_4 	TotalLostPackets 	0
scalar IntersectionExampleScenario.node[15].nic.mac1609_4 	DroppedPacketsInMac 	0
scalar IntersectionExampleScenario.node[15].nic.mac1609_4 	TooLittleTime 	0
scalar IntersectionExampleScenario.node[15].nic.mac1609_4 	TimesIntoBackoff 	0
scalar IntersectionExampleScenario.node[15].nic.mac1609_4 	SlotsBackoff 	0
scalar IntersectionExampleScenario.node[15].nic.mac1609_4 	NumInternalContention 	0
scalar IntersectionExampleScenario.node[15].nic.mac1609_4 	totalBusyTime 	0
scalar IntersectionExampleScenario.node[15].veinsmobility 	startTime 	54.75
scalar IntersectionExampleScenario.node[15].veinsmobility 	totalTime 	91.5
scalar IntersectionExampleScenario.node[15].veinsmobility 	stopTime 	146.5
scalar IntersectionExampleScenario.node[15].veinsmobility 	minSpeed 	0
scalar IntersectionExampleScenario.node[15].veinsmobility 	maxSpeed 	15.375
scalar IntersectionExampleScenario.node[15].veinsmobility 	totalDistance 	563.82714492173
scalar IntersectionExampleScenario.node[15].veinsmobility 	totalCO2Emission 	181.90428231876
scalar IntersectionExampleScenario.node[16].appl 	VehicleRemoved 	0
scalar IntersectionExampleScenario.node[16].appl 	ArrivedAtDest 	1
scalar IntersectionExampleScenario.node[16].appl 	IntersectionEnterTime 	59.5
scalar IntersectionExampleScenario.node[16].appl 	IntersectionExitTime 	132.51749576503
scalar IntersectionExampleScenario.node[16].appl 	NumberOfCollisions 	0
scalar IntersectionExampleScenario.node[16].nic.phy80211p 	busyTime 	0
scalar IntersectionExampleScenario.node[16].nic.mac1609_4 	ReceivedUnicastPackets 	0
scalar IntersectionExampleScenario.node[16].nic.mac1609_4 	ReceivedBroadcasts 	0
scalar IntersectionExampleScenario.node[16].nic.mac1609_4 	SentPackets 	0
scalar IntersectionExampleScenario.node[16].nic.mac1609_4 	SNIRLostPackets 	0
scalar IntersectionExampleScenario.node[16].nic.mac1609_4 	RXTXLostPackets 	0
scalar IntersectionExampleScenario.node[16].nic.mac1609_4 	TotalLostPackets 	0
scalar IntersectionExampleScenario.node[16].nic.mac1609_4 	DroppedPacketsInMac 	0
scalar IntersectionExampleScenario.node[16].nic.mac1609_4 	TooLittleTime 	0
scalar IntersectionExampleScenario.node[16].nic.mac1609_4 	TimesIntoBackoff 	0
scalar IntersectionExampleScenario.node[16].nic.mac1609_4 	SlotsBackoff 	0
scalar IntersectionExampleScenario.node[16].nic.mac1609_4 	NumInternalContention 	0
scalar IntersectionExampleScenario.node[16].nic.mac1609_4 	totalBusyTime 	0
scalar IntersectionExampleScenario.node[16].veinsmobility 	startTime 	59.5
scalar IntersectionExampleScenario.node[16].veinsmobility 	totalTime 	90.5
scalar IntersectionExampleScenario.node[16].veinsmobility 	stopTime 	150.25
scalar IntersectionExampleScenario.node[16].veinsmobility 	minSpeed 	0
scalar IntersectionExampleScenario.node[16].veinsmobility 	maxSpeed 	15.02499961853
scalar IntersectionExampleScenario.node[16].veinsmobility 	totalDistance 	553.47436166627
scalar IntersectionExampleScenario.node[16].veinsmobility 	totalCO2Emission 	177.91861833498
scalar IntersectionExampleScenario.node[23].appl 	VehicleRemoved 	0
scalar IntersectionExampleScenario.node[23].appl 	ArrivedAtDest 	1
scalar IntersectionExampleScenario.node[23].appl 	IntersectionEnterTime 	89.25
scalar IntersectionExampleScenario.node[23].appl 	IntersectionExitTime 	136.80101710051
scalar IntersectionExampleScenario.node[23].appl 	NumberOfCollisions 	0
scalar IntersectionExampleScenario.node[23].nic.phy80211p 	busyTime 	0
scalar IntersectionExampleScenario.node[23].nic.mac1609_4 	ReceivedUnicastPackets 	0
scalar IntersectionExampleScenario.node[23].nic.mac1609_4 	ReceivedBroadcasts 	0
scalar IntersectionExampleScenario.node[23].nic.mac1609_4 	SentPackets 	0
scalar IntersectionExampleScenario.node[23].nic.mac1609_4 	SNIRLostPackets 	0
scalar IntersectionExampleScenario.node[23].nic.mac1609_4 	RXTXLostPackets 	0
scalar IntersectionExampleScenario.node[23].nic.mac1609_4 	TotalLostPackets 	0
scalar IntersectionExampleScenario.node[23].nic.mac1609_4 	DroppedPacketsInMac 	0
scalar IntersectionExampleScenario.node[23].nic.mac1609_4 	TooLittleTime 	0
scalar IntersectionExampleScenario.node[23].nic.mac1609_4 	TimesIntoBackoff 	0
scalar IntersectionExampleScenario.node[23].nic.mac1609_4 	SlotsBackoff 	0
scalar IntersectionExampleScenario.node[23].nic.mac1609_4 	NumInternalContention 	0
scalar IntersectionExampleScenario.node[23].nic.mac1609_4 	totalBusyTime 	0
scalar IntersectionExampleScenario.node[23].veinsmobility 	startTime 	89.25
scalar IntersectionExampleScenario.node[23].veinsmobility 	totalTime 	62.75
scalar IntersectionExampleScenario.node[23].veinsmobility 	stopTime 	152.25
scalar IntersectionExampleScenario.node[23].veinsmobility 	minSpeed 	0
scalar IntersectionExampleScenario.node[23].veinsmobility 	maxSpeed 	16.27499961853
scalar IntersectionExampleScenario.node[23].veinsmobility 	totalDistance 	551.95141601739
scalar IntersectionExampleScenario.node[23].veinsmobility 	totalCO2Emission 	157.49717656449
scalar IntersectionExampleScenario.node[21].appl 	VehicleRemoved 	0
scalar IntersectionExampleScenario.node[21].appl 	ArrivedAtDest 	1
scalar IntersectionExampleScenario.node[21].appl 	IntersectionEnterTime 	79
scalar IntersectionExampleScenario.node[21].appl 	IntersectionExitTime 	135.30351139879
scalar IntersectionExampleScenario.node[21].appl 	NumberOfCollisions 	0
scalar IntersectionExampleScenario.node[21].nic.phy80211p 	busyTime 	0
scalar IntersectionExampleScenario.node[21].nic.mac1609_4 	ReceivedUnicastPackets 	0
scalar IntersectionExampleScenario.node[21].nic.mac1609_4 	ReceivedBroadcasts 	0
scalar IntersectionExampleScenario.node[21].nic.mac1609_4 	SentPackets 	0
scalar IntersectionExampleScenario.node[21].nic.mac1609_4 	SNIRLostPackets 	0
scalar IntersectionExampleScenario.node[21].nic.mac1609_4 	RXTXLostPackets 	0
scalar IntersectionExampleScenario.node[21].nic.mac1609_4 	TotalLostPackets 	0
scalar IntersectionExampleScenario.node[21].nic.mac1609_4 	DroppedPacketsInMac 	0
scalar IntersectionExampleScenario.node[21].nic.mac1609_4 	TooLittleTime 	0
scalar IntersectionExampleScenario.node[21].nic.mac1609_4 	TimesIntoBackoff 	0
scalar IntersectionExampleScenario.node[21].nic.mac1609_4 	SlotsBackoff 	0
scalar IntersectionExampleScenario.node[21].nic.mac1609_4 	NumInternalContention 	0
scalar IntersectionExampleScenario.node[21].nic.mac1609_4 	totalBusyTime 	0
scalar IntersectionExampleScenario.node[21].veinsmobility 	startTime 	79
scalar IntersectionExampleScenario.node[21].veinsmobility 	totalTime 	73.25
scalar IntersectionExampleScenario.node[21].veinsmobility 	stopTime 	152.5
scalar IntersectionExampleScenario.node[21].veinsmobility 	minSpeed 	0
scalar IntersectionExampleScenario.node[21].veinsmobility 	maxSpeed 	15.02499961853
scalar IntersectionExampleScenario.node[21].veinsmobility 	totalDistance 	545.30187807836
scalar IntersectionExampleScenario.node[21].veinsmobility 	totalCO2Emission 	161.38888992742
scalar IntersectionExampleScenario.node[24].appl 	VehicleRemoved 	0
scalar IntersectionExampleScenario.node[24].appl 	ArrivedAtDest 	1
scalar IntersectionExampleScenario.node[24].appl 	IntersectionEnterTime 	90
scalar IntersectionExampleScenario.node[24].appl 	IntersectionExitTime 	139.0003587906
scalar IntersectionExampleScenario.node[24].appl 	NumberOfCollisions 	0
scalar IntersectionExampleScenario.node[24].nic.phy80211p 	busyTime 	0
scalar IntersectionExampleScenario.node[24].nic.mac1609_4 	ReceivedUnicastPackets 	0
scalar IntersectionExampleScenario.node[24].nic.mac1609_4 	ReceivedBroadcasts 	0
scalar IntersectionExampleScenario.node[24].nic.mac1609_4 	SentPackets 	0
scalar IntersectionExampleScenario.node[24].nic.mac1609_4 	SNIRLostPackets 	0
scalar IntersectionExampleScenario.node[24].nic.mac1609_4 	RXTXLostPackets 	0
scalar IntersectionExampleScenario.node[24].nic.mac1609_4 	TotalLostPackets 	0
scalar IntersectionExampleScenario.node[24].nic.mac1609_4 	DroppedPacketsInMac 	0
scalar IntersectionExampleScenario.node[24].nic.mac1609_4 	TooLittleTime 	0
scalar IntersectionExampleScenario.node[24].nic.mac1609_4 	TimesIntoBackoff 	0
scalar IntersectionExampleScenario.node[24].nic.mac1609_4 	SlotsBackoff 	0
scalar IntersectionExampleScenario.node[24].nic.mac1609_4 	NumInternalContention 	0
scalar IntersectionExampleScenario.node[24].nic.mac1609_4 	totalBusyTime 	0
scalar IntersectionExampleScenario.node[24].veinsmobility 	startTime 	90
scalar IntersectionExampleScenario.node[24].veinsmobility 	totalTime 	65.5
scalar IntersectionExampleScenario.node[24].veinsmobility 	stopTime 	155.75
scalar IntersectionExampleScenario.node[24].veinsmobility 	minSpeed 	0
scalar IntersectionExampleScenario.node[24].veinsmobility 	maxSpeed 	15.375
scalar IntersectionExampleScenario.node[24].veinsmobility 	totalDistance 	572.72924125885
scalar IntersectionExampleScenario.node[24].veinsmobility 	totalCO2Emission 	161.09537831288
scalar IntersectionExampleScenario.node[29].appl 	VehicleRemoved 	0
scalar IntersectionExampleScenario.node[29].appl 	ArrivedAtDest 	1
scalar IntersectionExampleScenario.node[29].appl 	IntersectionEnterTime 	105.25
scalar IntersectionExampleScenario.node[29].appl 	IntersectionExitTime 	141.33894059461
scalar IntersectionExampleScenario.node[29].appl 	NumberOfCollisions 	0
scalar IntersectionExampleScenario.node[29].nic.phy80211p 	busyTime 	0
scalar IntersectionExampleScenario.node[29].nic.mac1609_4 	ReceivedUnicastPackets 	0
scalar IntersectionExampleScenario.node[29].nic.mac1609_4 	ReceivedBroadcasts 	0
scalar IntersectionExampleScenario.node[29].nic.mac1609_4 	SentPackets 	0
scalar IntersectionExampleScenario.node[29].nic.mac1609_4 	SNIRLostPackets 	0
scalar IntersectionExampleScenario.node[29].nic.mac1609_4 	RXTXLostPackets 	0
scalar IntersectionExampleScenario.node[29].nic.mac1609_4 	TotalLostPackets 	0
scalar IntersectionExampleScenario.node[29].nic.mac1609_4 	DroppedPacketsInMac 	0
scalar IntersectionExampleScenario.node[29].nic.mac1609_4 	TooLittleTime 	0
scalar IntersectionExampleScenario.node[29].nic.mac1609_4 	TimesIntoBackoff 	0
scalar IntersectionExampleScenario.node[29].nic.mac1609_4 	SlotsBackoff 	0
scalar IntersectionExampleScenario.node[29].nic.mac1609_4 	NumInternalContention 	0
scalar IntersectionExampleScenario.node[29].nic.mac1609_4 	totalBusyTime 	0
scalar IntersectionExampleScenario.node[29].veinsmobility 	startTime 	105.25
scalar IntersectionExampleScenario.node[29].veinsmobility 	totalTime 	53.25
scalar IntersectionExampleScenario.node[29].veinsmobility 	stopTime 	158.75
scalar IntersectionExampleScenario.node[29].veinsmobility 	minSpeed 	0.94205796718597
scalar IntersectionExampleScenario.node[29].veinsmobility 	maxSpeed 	15.25
scalar IntersectionExampleScenario.node[29].veinsmobility 	totalDistance 	546.17812656808
scalar IntersectionExampleScenario.node[29].veinsmobility 	totalCO2Emission 	147.89817988082
scalar IntersectionExampleScenario.node[30].appl 	VehicleRemoved 	0
scalar IntersectionExampleScenario.node[30].appl 	ArrivedAtDest 	1
scalar IntersectionExampleScenario.node[30].appl 	IntersectionEnterTime 	109.75
scalar IntersectionExampleScenario.node[30].appl 	IntersectionExitTime 	143.76342066354
scalar IntersectionExampleScenario.node[30].appl 	NumberOfCollisions 	0
scalar IntersectionExampleScenario.node[30].nic.phy80211p 	busyTime 	0
scalar IntersectionExampleScenario.node[30].nic.mac1609_4 	ReceivedUnicastPackets 	0
scalar IntersectionExampleScenario.node[30].nic.mac1609_4 	ReceivedBroadcasts 	0
scalar IntersectionExampleScenario.node[30].nic.mac1609_4 	SentPackets 	0
scalar IntersectionExampleScenario.node[30].nic.mac1609_4 	SNIRLostPackets 	0
scalar IntersectionExampleScenario.node[30].nic.mac1609_4 	RXTXLostPackets 	0
scalar IntersectionExampleScenario.node[30].nic.mac1609_4 	TotalLostPackets 	0
scalar IntersectionExampleScenario.node[30].nic.mac1609_4 	DroppedPacketsInMac 	0
scalar IntersectionExampleScenario.node[30].nic.mac1609_4 	TooLittleTime 	0
scalar IntersectionExampleScenario.node[30].nic.mac1609_4 	TimesIntoBackoff 	0
scalar IntersectionExampleScenario.node[30].nic.mac1609_4 	SlotsBackoff 	0
scalar IntersectionExampleScenario.node[30].nic.mac1609_4 	NumInternalContention 	0
scalar IntersectionExampleScenario.node[30].nic.mac1609_4 	totalBusyTime 	0
scalar IntersectionExampleScenario.node[30].veinsmobility 	startTime 	109.75
scalar IntersectionExampleScenario.node[30].veinsmobility 	totalTime 	51.5
scalar IntersectionExampleScenario.node[30].veinsmobility 	stopTime 	161.5
scalar IntersectionExampleScenario.node[30].veinsmobility 	minSpeed 	1.3616505861282
scalar IntersectionExampleScenario.node[30].veinsmobility 	maxSpeed 	15.02499961853
scalar IntersectionExampleScenario.node[30].veinsmobility 	totalDistance 	546.94908172646
scalar IntersectionExampleScenario.node[30].veinsmobility 	totalCO2Emission 	137.38676929517
scalar IntersectionExampleScenario.node[32].appl 	VehicleRemoved 	0
scalar IntersectionExampleScenario.node[32].appl 	ArrivedAtDest 	1
scalar IntersectionExampleScenario.node[32].appl 	IntersectionEnterTime 	118
scalar IntersectionExampleScenario.node[32].appl 	IntersectionExitTime 	154.26144455504
scalar IntersectionExampleScenario.node[32].appl 	NumberOfCollisions 	0
scalar IntersectionExampleScenario.node[32].nic.phy80211p 	busyTime 	0
scalar IntersectionExampleScenario.node[32].nic.mac1609_4 	ReceivedUnicastPackets 	0
scalar IntersectionExampleScenario.node[32].nic.mac1609_4 	ReceivedBroadcasts 	0
scalar IntersectionExampleScenario.node[32].nic.mac1609_4 	SentPackets 	0
scalar IntersectionExampleScenario.node[32].nic.mac1609_4 	SNIRLostPackets 	0
scalar IntersectionExampleScenario.node[32].nic.mac1609_4 	RXTXLostPackets 	0
scalar IntersectionExampleScenario.node[32].nic.mac1609_4 	TotalLostPackets 	0
scalar IntersectionExampleScenario.node[32].nic.mac1609_4 	DroppedPacketsInMac 	0
scalar IntersectionExampleScenario.node[32].nic.mac1609_4 	TooLittleTime 	0
scalar IntersectionExampleScenario.node[32].nic.mac1609_4 	TimesIntoBackoff 	0
scalar IntersectionExampleScenario.node[32].nic.mac1609_4 	SlotsBackoff 	0
scalar IntersectionExampleScenario.node[32].nic.mac1609_4 	NumInternalContention 	0
scalar IntersectionExampleScenario.node[32].nic.mac1609_4 	totalBusyTime 	0
scalar IntersectionExampleScenario.node[32].veinsmobility 	startTime 	118
scalar IntersectionExampleScenario.node[32].veinsmobility 	totalTime 	52.25
scalar IntersectionExampleScenario.node[32].veinsmobility 	stopTime 	170.5
scalar IntersectionExampleScenario.node[32].veinsmobility 	minSpeed 	0
scalar IntersectionExampleScenario.node[32].veinsmobility 	maxSpeed 	15.64999961853
scalar IntersectionExampleScenario.node[32].veinsmobility 	totalDistance 	549.41291917911
scalar IntersectionExampleScenario.node[32].veinsmobility 	totalCO2Emission 	145.31830843245
scalar IntersectionExampleScenario.node[38].appl 	VehicleRemoved 	0
scalar IntersectionExampleScenario.node[38].appl 	ArrivedAtDest 	1
scalar IntersectionExampleScenario.node[38].appl 	IntersectionEnterTime 	140.5
scalar IntersectionExampleScenario.node[38].appl 	IntersectionExitTime 	163.25924612474
scalar IntersectionExampleScenario.node[38].appl 	NumberOfCollisions 	0
scalar IntersectionExampleScenario.node[38].nic.phy80211p 	busyTime 	0
scalar IntersectionExampleScenario.node[38].nic.mac1609_4 	ReceivedUnicastPackets 	0
scalar IntersectionExampleScenario.node[38].nic.mac1609_4 	ReceivedBroadcasts 	0
scalar IntersectionExampleScenario.node[38].nic.mac1609_4 	SentPackets 	0
scalar IntersectionExampleScenario.node[38].nic.mac1609_4 	SNIRLostPackets 	0
scalar IntersectionExampleScenario.node[38].nic.mac1609_4 	RXTXLostPackets 	0
scalar IntersectionExampleScenario.node[38].nic.mac1609_4 	TotalLostPackets 	0
scalar IntersectionExampleScenario.node[38].nic.mac1609_4 	DroppedPacketsInMac 	0
scalar IntersectionExampleScenario.node[38].nic.mac1609_4 	TooLittleTime 	0
scalar IntersectionExampleScenario.node[38].nic.mac1609_4 	TimesIntoBackoff 	0
scalar IntersectionExampleScenario.node[38].nic.mac1609_4 	SlotsBackoff 	0
scalar IntersectionExampleScenario.node[38].nic.mac1609_4 	NumInternalContention 	0
scalar IntersectionExampleScenario.node[38].nic.mac1609_4 	totalBusyTime 	0
scalar IntersectionExampleScenario.node[38].veinsmobility 	startTime 	140.5
scalar IntersectionExampleScenario.node[38].veinsmobility 	totalTime 	38.75
scalar IntersectionExampleScenario.node[38].veinsmobility 	stopTime 	179.5
scalar IntersectionExampleScenario.node[38].veinsmobility 	minSpeed 	5.6500000953674
scalar IntersectionExampleScenario.node[38].veinsmobility 	maxSpeed 	15.64999961853
scalar IntersectionExampleScenario.node[38].veinsmobility 	totalDistance 	552.8963394165
scalar IntersectionExampleScenario.node[38].veinsmobility 	totalCO2Emission 	117.69084027776
scalar IntersectionExampleScenario.node[31].appl 	VehicleRemoved 	0
scalar IntersectionExampleScenario.node[31].appl 	ArrivedAtDest 	1
scalar IntersectionExampleScenario.node[31].appl 	IntersectionEnterTime 	117.5
scalar IntersectionExampleScenario.node[31].appl 	IntersectionExitTime 	175.52896980793
scalar IntersectionExampleScenario.node[31].appl 	NumberOfCollisions 	0
scalar IntersectionExampleScenario.node[31].nic.phy80211p 	busyTime 	0
scalar IntersectionExampleScenario.node[31].nic.mac1609_4 	ReceivedUnicastPackets 	0
scalar IntersectionExampleScenario.node[31].nic.mac1609_4 	ReceivedBroadcasts 	0
scalar IntersectionExampleScenario.node[31].nic.mac1609_4 	SentPackets 	0
scalar IntersectionExampleScenario.node[31].nic.mac1609_4 	SNIRLostPackets 	0
scalar IntersectionExampleScenario.node[31].nic.mac1609_4 	RXTXLostPackets 	0
scalar IntersectionExampleScenario.node[31].nic.mac1609_4 	TotalLostPackets 	0
scalar IntersectionExampleScenario.node[31].nic.mac1609_4 	DroppedPacketsInMac 	0
scalar IntersectionExampleScenario.node[31].nic.mac1609_4 	TooLittleTime 	0
scalar IntersectionExampleScenario.node[31].nic.mac1609_4 	TimesIntoBackoff 	0
scalar IntersectionExampleScenario.node[31].nic.mac1609_4 	SlotsBackoff 	0
scalar IntersectionExampleScenario.node[31].nic.mac1609_4 	NumInternalContention 	0
scalar IntersectionExampleScenario.node[31].nic.mac1609_4 	totalBusyTime 	0
scalar IntersectionExampleScenario.node[31].veinsmobility 	startTime 	117.5
scalar IntersectionExampleScenario.node[31].veinsmobility 	totalTime 	74.5
scalar IntersectionExampleScenario.node[31].veinsmobility 	stopTime 	192.25
scalar IntersectionExampleScenario.node[31].veinsmobility 	minSpeed 	0
scalar IntersectionExampleScenario.node[31].veinsmobility 	maxSpeed 	15.875
scalar IntersectionExampleScenario.node[31].veinsmobility 	totalDistance 	545.8471517697
scalar IntersectionExampleScenario.node[31].veinsmobility 	totalCO2Emission 	168.92492625978
scalar IntersectionExampleScenario.node[27].appl 	VehicleRemoved 	0
scalar IntersectionExampleScenario.node[27].appl 	ArrivedAtDest 	1
scalar IntersectionExampleScenario.node[27].appl 	IntersectionEnterTime 	100
scalar IntersectionExampleScenario.node[27].appl 	IntersectionExitTime 	175.52154256383
scalar IntersectionExampleScenario.node[27].appl 	NumberOfCollisions 	0
scalar IntersectionExampleScenario.node[27].nic.phy80211p 	busyTime 	0
scalar IntersectionExampleScenario.node[27].nic.mac1609_4 	ReceivedUnicastPackets 	0
scalar IntersectionExampleScenario.node[27].nic.mac1609_4 	ReceivedBroadcasts 	0
scalar IntersectionExampleScenario.node[27].nic.mac1609_4 	SentPackets 	0
scalar IntersectionExampleScenario.node[27].nic.mac1609_4 	SNIRLostPackets 	0
scalar IntersectionExampleScenario.node[27].nic.mac1609_4 	RXTXLostPackets 	0
scalar IntersectionExampleScenario.node[27].nic.mac1609_4 	TotalLostPackets 	0
scalar IntersectionExampleScenario.node[27].nic.mac1609_4 	DroppedPacketsInMac 	0
scalar IntersectionExampleScenario.node[27].nic.mac1609_4 	TooLittleTime 	0
scalar IntersectionExampleScenario.node[27].nic.mac1609_4 	TimesIntoBackoff 	0
scalar IntersectionExampleScenario.node[27].nic.mac1609_4 	SlotsBackoff 	0
scalar IntersectionExampleScenario.node[27].nic.mac1609_4 	NumInternalContention 	0
scalar IntersectionExampleScenario.node[27].nic.mac1609_4 	totalBusyTime 	0
scalar IntersectionExampleScenario.node[27].veinsmobility 	startTime 	100
scalar IntersectionExampleScenario.node[27].veinsmobility 	totalTime 	92.75
scalar IntersectionExampleScenario.node[27].veinsmobility 	stopTime 	193
scalar IntersectionExampleScenario.node[27].veinsmobility 	minSpeed 	0
scalar IntersectionExampleScenario.node[27].veinsmobility 	maxSpeed 	15.25
scalar IntersectionExampleScenario.node[27].veinsmobility 	totalDistance 	544.91893674285
scalar IntersectionExampleScenario.node[27].veinsmobility 	totalCO2Emission 	180.26164345281
scalar IntersectionExampleScenario.node[28].appl 	VehicleRemoved 	0
scalar IntersectionExampleScenario.node[28].appl 	ArrivedAtDest 	1
scalar IntersectionExampleScenario.node[28].appl 	IntersectionEnterTime 	101
scalar IntersectionExampleScenario.node[28].appl 	IntersectionExitTime 	177.2582500217
scalar IntersectionExampleScenario.node[28].appl 	NumberOfCollisions 	0
scalar IntersectionExampleScenario.node[28].nic.phy80211p 	busyTime 	0
scalar IntersectionExampleScenario.node[28].nic.mac1609_4 	ReceivedUnicastPackets 	0
scalar IntersectionExampleScenario.node[28].nic.mac1609_4 	ReceivedBroadcasts 	0
scalar IntersectionExampleScenario.node[28].nic.mac1609_4 	SentPackets 	0
scalar IntersectionExampleScenario.node[28].nic.mac1609_4 	SNIRLostPackets 	0
scalar IntersectionExampleScenario.node[28].nic.mac1609_4 	RXTXLostPackets 	0
scalar IntersectionExampleScenario.node[28].nic.mac1609_4 	TotalLostPackets 	0
scalar IntersectionExampleScenario.node[28].nic.mac1609_4 	DroppedPacketsInMac 	0
scalar IntersectionExampleScenario.node[28].nic.mac1609_4 	TooLittleTime 	0
scalar IntersectionExampleScenario.node[28].nic.mac1609_4 	TimesIntoBackoff 	0
scalar IntersectionExampleScenario.node[28].nic.mac1609_4 	SlotsBackoff 	0
scalar IntersectionExampleScenario.node[28].nic.mac1609_4 	NumInternalContention 	0
scalar IntersectionExampleScenario.node[28].nic.mac1609_4 	totalBusyTime 	0
scalar IntersectionExampleScenario.node[28].veinsmobility 	startTime 	101
scalar IntersectionExampleScenario.node[28].veinsmobility 	totalTime 	92.5
scalar IntersectionExampleScenario.node[28].veinsmobility 	stopTime 	193.75
scalar IntersectionExampleScenario.node[28].veinsmobility 	minSpeed 	0
scalar IntersectionExampleScenario.node[28].veinsmobility 	maxSpeed 	15.5
scalar IntersectionExampleScenario.node[28].veinsmobility 	totalDistance 	574.09678649902
scalar IntersectionExampleScenario.node[28].veinsmobility 	totalCO2Emission 	185.27853848814
scalar IntersectionExampleScenario.node[33].appl 	VehicleRemoved 	0
scalar IntersectionExampleScenario.node[33].appl 	ArrivedAtDest 	1
scalar IntersectionExampleScenario.node[33].appl 	IntersectionEnterTime 	131.25
scalar IntersectionExampleScenario.node[33].appl 	IntersectionExitTime 	178.60162437145
scalar IntersectionExampleScenario.node[33].appl 	NumberOfCollisions 	0
scalar IntersectionExampleScenario.node[33].nic.phy80211p 	busyTime 	0
scalar IntersectionExampleScenario.node[33].nic.mac1609_4 	ReceivedUnicastPackets 	0
scalar IntersectionExampleScenario.node[33].nic.mac1609_4 	ReceivedBroadcasts 	0
scalar IntersectionExampleScenario.node[33].nic.mac1609_4 	SentPackets 	0
scalar IntersectionExampleScenario.node[33].nic.mac1609_4 	SNIRLostPackets 	0
scalar IntersectionExampleScenario.node[33].nic.mac1609_4 	RXTXLostPackets 	0
scalar IntersectionExampleScenario.node[33].nic.mac1609_4 	TotalLostPackets 	0
scalar IntersectionExampleScenario.node[33].nic.mac1609_4 	DroppedPacketsInMac 	0
scalar IntersectionExampleScenario.node[33].nic.mac1609_4 	TooLittleTime 	0
scalar IntersectionExampleScenario.node[33].nic.mac1609_4 	TimesIntoBackoff 	0
scalar IntersectionExampleScenario.node[33].nic.mac1609_4 	SlotsBackoff 	0
scalar IntersectionExampleScenario.node[33].nic.mac1609_4 	NumInternalContention 	0
scalar IntersectionExampleScenario.node[33].nic.mac1609_4 	totalBusyTime 	0
scalar IntersectionExampleScenario.node[33].veinsmobility 	startTime 	131.25
scalar IntersectionExampleScenario.node[33].veinsmobility 	totalTime 	64.25
scalar IntersectionExampleScenario.node[33].veinsmobility 	stopTime 	195.75
scalar IntersectionExampleScenario.node[33].veinsmobility 	minSpeed 	0
scalar IntersectionExampleScenario.node[33].veinsmobility 	maxSpeed 	15.25
scalar IntersectionExampleScenario.node[33].veinsmobility 	totalDistance 	544.30713295832
scalar IntersectionExampleScenario.node[33].veinsmobility 	totalCO2Emission 	150.87566129552
scalar IntersectionExampleScenario.node[39].appl 	VehicleRemoved 	0
scalar IntersectionExampleScenario.node[39].appl 	ArrivedAtDest 	1
scalar IntersectionExampleScenario.node[39].appl 	IntersectionEnterTime 	141.5
scalar IntersectionExampleScenario.node[39].appl 	IntersectionExitTime 	179.54639173692
scalar IntersectionExampleScenario.node[39].appl 	NumberOfCollisions 	0
scalar IntersectionExampleScenario.node[39].nic.phy80211p 	busyTime 	0
scalar IntersectionExampleScenario.node[39].nic.mac1609_4 	ReceivedUnicastPackets 	0
scalar IntersectionExampleScenario.node[39].nic.mac1609_4 	ReceivedBroadcasts 	0
scalar IntersectionExampleScenario.node[39].nic.mac1609_4 	SentPackets 	0
scalar IntersectionExampleScenario.node[39].nic.mac1609_4 	SNIRLostPackets 	0
scalar IntersectionExampleScenario.node[39].nic.mac1609_4 	RXTXLostPackets 	0
scalar IntersectionExampleScenario.node[39].nic.mac1609_4 	TotalLostPackets 	0
scalar IntersectionExampleScenario.node[39].nic.mac1609_4 	DroppedPacketsInMac 	0
scalar IntersectionExampleScenario.node[39].nic.mac1609_4 	TooLittleTime 	0
scalar IntersectionExampleScenario.node[39].nic.mac1609_4 	TimesIntoBackoff 	0
scalar IntersectionExampleScenario.node[39].nic.mac1609_4 	SlotsBackoff 	0
scalar IntersectionExampleScenario.node[39].nic.mac1609_4 	NumInternalContention 	0
scalar IntersectionExampleScenario.node[39].nic.mac1609_4 	totalBusyTime 	0
scalar IntersectionExampleScenario.node[39].veinsmobility 	startTime 	141.5
scalar IntersectionExampleScenario.node[39].veinsmobility 	totalTime 	55
scalar IntersectionExampleScenario.node[39].veinsmobility 	stopTime 	196.75
scalar IntersectionExampleScenario.node[39].veinsmobility 	minSpeed 	0
scalar IntersectionExampleScenario.node[39].veinsmobility 	maxSpeed 	14.654211997986
scalar IntersectionExampleScenario.node[39].veinsmobility 	totalDistance 	553.38291931152
scalar IntersectionExampleScenario.node[39].veinsmobility 	totalCO2Emission 	137.17222162527
scalar IntersectionExampleScenario.node[37].appl 	VehicleRemoved 	0
scalar IntersectionExampleScenario.node[37].appl 	ArrivedAtDest 	1
scalar IntersectionExampleScenario.node[37].appl 	IntersectionEnterTime 	139.5
scalar IntersectionExampleScenario.node[37].appl 	IntersectionExitTime 	181.0162212016
scalar IntersectionExampleScenario.node[37].appl 	NumberOfCollisions 	0
scalar IntersectionExampleScenario.node[37].nic.phy80211p 	busyTime 	0
scalar IntersectionExampleScenario.node[37].nic.mac1609_4 	ReceivedUnicastPackets 	0
scalar IntersectionExampleScenario.node[37].nic.mac1609_4 	ReceivedBroadcasts 	0
scalar IntersectionExampleScenario.node[37].nic.mac1609_4 	SentPackets 	0
scalar IntersectionExampleScenario.node[37].nic.mac1609_4 	SNIRLostPackets 	0
scalar IntersectionExampleScenario.node[37].nic.mac1609_4 	RXTXLostPackets 	0
scalar IntersectionExampleScenario.node[37].nic.mac1609_4 	TotalLostPackets 	0
scalar IntersectionExampleScenario.node[37].nic.mac1609_4 	DroppedPacketsInMac 	0
scalar IntersectionExampleScenario.node[37].nic.mac1609_4 	TooLittleTime 	0
scalar IntersectionExampleScenario.node[37].nic.mac1609_4 	TimesIntoBackoff 	0
scalar IntersectionExampleScenario.node[37].nic.mac1609_4 	SlotsBackoff 	0
scalar IntersectionExampleScenario.node[37].nic.mac1609_4 	NumInternalContention 	0
scalar IntersectionExampleScenario.node[37].nic.mac1609_4 	totalBusyTime 	0
scalar IntersectionExampleScenario.node[37].veinsmobility 	startTime 	139.5
scalar IntersectionExampleScenario.node[37].veinsmobility 	totalTime 	58.75
scalar IntersectionExampleScenario.node[37].veinsmobility 	stopTime 	198.5
scalar IntersectionExampleScenario.node[37].veinsmobility 	minSpeed 	0
scalar IntersectionExampleScenario.node[37].veinsmobility 	maxSpeed 	15.140864372253
scalar IntersectionExampleScenario.node[37].veinsmobility 	totalDistance 	515.79995084603
scalar IntersectionExampleScenario.node[37].veinsmobility 	totalCO2Emission 	140.51723848455
scalar IntersectionExampleScenario.node[40].appl 	VehicleRemoved 	0
scalar IntersectionExampleScenario.node[40].appl 	ArrivedAtDest 	1
scalar IntersectionExampleScenario.node[40].appl 	IntersectionEnterTime 	148.25
scalar IntersectionExampleScenario.node[40].appl 	IntersectionExitTime 	182.31172121415
scalar IntersectionExampleScenario.node[40].appl 	NumberOfCollisions 	0
scalar IntersectionExampleScenario.node[40].nic.phy80211p 	busyTime 	0
scalar IntersectionExampleScenario.node[40].nic.mac1609_4 	ReceivedUnicastPackets 	0
scalar IntersectionExampleScenario.node[40].nic.mac1609_4 	ReceivedBroadcasts 	0
scalar IntersectionExampleScenario.node[40].nic.mac1609_4 	SentPackets 	0
scalar IntersectionExampleScenario.node[40].nic.mac1609_4 	SNIRLostPackets 	0
scalar IntersectionExampleScenario.node[40].nic.mac1609_4 	RXTXLostPackets 	0
scalar IntersectionExampleScenario.node[40].nic.mac1609_4 	TotalLostPackets 	0
scalar IntersectionExampleScenario.node[40].nic.mac1609_4 	DroppedPacketsInMac 	0
scalar IntersectionExampleScenario.node[40].nic.mac1609_4 	TooLittleTime 	0
scalar IntersectionExampleScenario.node[40].nic.mac1609_4 	TimesIntoBackoff 	0
scalar IntersectionExampleScenario.node[40].nic.mac1609_4 	SlotsBackoff 	0
scalar IntersectionExampleScenario.node[40].nic.mac1609_4 	NumInternalContention 	0
scalar IntersectionExampleScenario.node[40].nic.mac1609_4 	totalBusyTime 	0
scalar IntersectionExampleScenario.node[40].veinsmobility 	startTime 	148.25
scalar IntersectionExampleScenario.node[40].veinsmobility 	totalTime 	50.5
scalar IntersectionExampleScenario.node[40].veinsmobility 	stopTime 	199
scalar IntersectionExampleScenario.node[40].veinsmobility 	minSpeed 	2.5738456249237
scalar IntersectionExampleScenario.node[40].veinsmobility 	maxSpeed 	15.550129890442
scalar IntersectionExampleScenario.node[40].veinsmobility 	totalDistance 	544.88608280309
scalar IntersectionExampleScenario.node[40].veinsmobility 	totalCO2Emission 	142.83794966317
scalar IntersectionExampleScenario.node[36].appl 	VehicleRemoved 	0
scalar IntersectionExampleScenario.node[36].appl 	ArrivedAtDest 	1
scalar IntersectionExampleScenario.node[36].appl 	IntersectionEnterTime 	138.75
scalar IntersectionExampleScenario.node[36].appl 	IntersectionExitTime 	185.34774480783
scalar IntersectionExampleScenario.node[36].appl 	NumberOfCollisions 	0
scalar IntersectionExampleScenario.node[36].nic.phy80211p 	busyTime 	0
scalar IntersectionExampleScenario.node[36].nic.mac1609_4 	ReceivedUnicastPackets 	0
scalar IntersectionExampleScenario.node[36].nic.mac1609_4 	ReceivedBroadcasts 	0
scalar IntersectionExampleScenario.node[36].nic.mac1609_4 	SentPackets 	0
scalar IntersectionExampleScenario.node[36].nic.mac1609_4 	SNIRLostPackets 	0
scalar IntersectionExampleScenario.node[36].nic.mac1609_4 	RXTXLostPackets 	0
scalar IntersectionExampleScenario.node[36].nic.mac1609_4 	TotalLostPackets 	0
scalar IntersectionExampleScenario.node[36].nic.mac1609_4 	DroppedPacketsInMac 	0
scalar IntersectionExampleScenario.node[36].nic.mac1609_4 	TooLittleTime 	0
scalar IntersectionExampleScenario.node[36].nic.mac1609_4 	TimesIntoBackoff 	0
scalar IntersectionExampleScenario.node[36].nic.mac1609_4 	SlotsBackoff 	0
scalar IntersectionExampleScenario.node[36].nic.mac1609_4 	NumInternalContention 	0
scalar IntersectionExampleScenario.node[36].nic.mac1609_4 	totalBusyTime 	0
scalar IntersectionExampleScenario.node[36].veinsmobility 	startTime 	138.75
scalar IntersectionExampleScenario.node[36].veinsmobility 	totalTime 	63
scalar IntersectionExampleScenario.node[36].veinsmobility 	stopTime 	202
scalar IntersectionExampleScenario.node[36].veinsmobility 	minSpeed 	0
scalar IntersectionExampleScenario.node[36].veinsmobility 	maxSpeed 	15.461110115051
scalar IntersectionExampleScenario.node[36].veinsmobility 	totalDistance 	566.08851499187
scalar IntersectionExampleScenario.node[36].veinsmobility 	totalCO2Emission 	163.57751366909
scalar IntersectionExampleScenario.node[35].appl 	VehicleRemoved 	0
scalar IntersectionExampleScenario.node[35].appl 	ArrivedAtDest 	1
scalar IntersectionExampleScenario.node[35].appl 	IntersectionEnterTime 	138
scalar IntersectionExampleScenario.node[35].appl 	IntersectionExitTime 	183.79523805619
scalar IntersectionExampleScenario.node[35].appl 	NumberOfCollisions 	0
scalar IntersectionExampleScenario.node[35].nic.phy80211p 	busyTime 	0
scalar IntersectionExampleScenario.node[35].nic.mac1609_4 	ReceivedUnicastPackets 	0
scalar IntersectionExampleScenario.node[35].nic.mac1609_4 	ReceivedBroadcasts 	0
scalar IntersectionExampleScenario.node[35].nic.mac1609_4 	SentPackets 	0
scalar IntersectionExampleScenario.node[35].nic.mac1609_4 	SNIRLostPackets 	0
scalar IntersectionExampleScenario.node[35].nic.mac1609_4 	RXTXLostPackets 	0
scalar IntersectionExampleScenario.node[35].nic.mac1609_4 	TotalLostPackets 	0
scalar IntersectionExampleScenario.node[35].nic.mac1609_4 	DroppedPacketsInMac 	0
scalar IntersectionExampleScenario.node[35].nic.mac1609_4 	TooLittleTime 	0
scalar IntersectionExampleScenario.node[35].nic.mac1609_4 	TimesIntoBackoff 	0
scalar IntersectionExampleScenario.node[35].nic.mac1609_4 	SlotsBackoff 	0
[...]
scalar IntersectionExampleScenario.node[575].veinsmobility 	totalCO2Emission 	70.416478741015
scalar IntersectionExampleScenario.node[576].appl 	VehicleRemoved 	0
scalar IntersectionExampleScenario.node[576].appl 	ArrivedAtDest 	0
scalar IntersectionExampleScenario.node[576].appl 	IntersectionEnterTime 	1770.25
scalar IntersectionExampleScenario.node[576].appl 	IntersectionExitTime 	-1
scalar IntersectionExampleScenario.node[576].appl 	NumberOfCollisions 	0
scalar IntersectionExampleScenario.node[576].nic.phy80211p 	busyTime 	0
scalar IntersectionExampleScenario.node[576].nic.mac1609_4 	ReceivedUnicastPackets 	0
scalar IntersectionExampleScenario.node[576].nic.mac1609_4 	ReceivedBroadcasts 	0
scalar IntersectionExampleScenario.node[576].nic.mac1609_4 	SentPackets 	0
scalar IntersectionExampleScenario.node[576].nic.mac1609_4 	SNIRLostPackets 	0
scalar IntersectionExampleScenario.node[576].nic.mac1609_4 	RXTXLostPackets 	0
scalar IntersectionExampleScenario.node[576].nic.mac1609_4 	TotalLostPackets 	0
scalar IntersectionExampleScenario.node[576].nic.mac1609_4 	DroppedPacketsInMac 	0
scalar IntersectionExampleScenario.node[576].nic.mac1609_4 	TooLittleTime 	0
scalar IntersectionExampleScenario.node[576].nic.mac1609_4 	TimesIntoBackoff 	0
scalar IntersectionExampleScenario.node[576].nic.mac1609_4 	SlotsBackoff 	0
scalar IntersectionExampleScenario.node[576].nic.mac1609_4 	NumInternalContention 	0
scalar IntersectionExampleScenario.node[576].nic.mac1609_4 	totalBusyTime 	0
scalar IntersectionExampleScenario.node[576].veinsmobility 	startTime 	1770.25
scalar IntersectionExampleScenario.node[576].veinsmobility 	totalTime 	29.75
scalar IntersectionExampleScenario.node[576].veinsmobility 	stopTime 	1800
scalar IntersectionExampleScenario.node[576].veinsmobility 	minSpeed 	0
scalar IntersectionExampleScenario.node[576].veinsmobility 	maxSpeed 	15.02499961853
scalar IntersectionExampleScenario.node[576].veinsmobility 	totalDistance 	282.02600097656
scalar IntersectionExampleScenario.node[576].veinsmobility 	totalCO2Emission 	69.880101426684
scalar IntersectionExampleScenario.node[577].appl 	VehicleRemoved 	0
scalar IntersectionExampleScenario.node[577].appl 	ArrivedAtDest 	0
scalar IntersectionExampleScenario.node[577].appl 	IntersectionEnterTime 	1771.75
scalar IntersectionExampleScenario.node[577].appl 	IntersectionExitTime 	1797.6179954291
scalar IntersectionExampleScenario.node[577].appl 	NumberOfCollisions 	0
scalar IntersectionExampleScenario.node[577].nic.phy80211p 	busyTime 	0
scalar IntersectionExampleScenario.node[577].nic.mac1609_4 	ReceivedUnicastPackets 	0
scalar IntersectionExampleScenario.node[577].nic.mac1609_4 	ReceivedBroadcasts 	0
scalar IntersectionExampleScenario.node[577].nic.mac1609_4 	SentPackets 	0
scalar IntersectionExampleScenario.node[577].nic.mac1609_4 	SNIRLostPackets 	0
scalar IntersectionExampleScenario.node[577].nic.mac1609_4 	RXTXLostPackets 	0
scalar IntersectionExampleScenario.node[577].nic.mac1609_4 	TotalLostPackets 	0
scalar IntersectionExampleScenario.node[577].nic.mac1609_4 	DroppedPacketsInMac 	0
scalar IntersectionExampleScenario.node[577].nic.mac1609_4 	TooLittleTime 	0
scalar IntersectionExampleScenario.node[577].nic.mac1609_4 	TimesIntoBackoff 	0
scalar IntersectionExampleScenario.node[577].nic.mac1609_4 	SlotsBackoff 	0
scalar IntersectionExampleScenario.node[577].nic.mac1609_4 	NumInternalContention 	0
scalar IntersectionExampleScenario.node[577].nic.mac1609_4 	totalBusyTime 	0
scalar IntersectionExampleScenario.node[577].veinsmobility 	startTime 	1771.75
scalar IntersectionExampleScenario.node[577].veinsmobility 	totalTime 	28.25
scalar IntersectionExampleScenario.node[577].veinsmobility 	stopTime 	1800
scalar IntersectionExampleScenario.node[577].veinsmobility 	minSpeed 	5.6500000953674
scalar IntersectionExampleScenario.node[577].veinsmobility 	maxSpeed 	14.39999961853
scalar IntersectionExampleScenario.node[577].veinsmobility 	totalDistance 	328.70772035969
scalar IntersectionExampleScenario.node[577].veinsmobility 	totalCO2Emission 	101.96920012817
scalar IntersectionExampleScenario.node[578].appl 	VehicleRemoved 	0
scalar IntersectionExampleScenario.node[578].appl 	ArrivedAtDest 	0
scalar IntersectionExampleScenario.node[578].appl 	IntersectionEnterTime 	1777.25
scalar IntersectionExampleScenario.node[578].appl 	IntersectionExitTime 	-1
scalar IntersectionExampleScenario.node[578].appl 	NumberOfCollisions 	0
scalar IntersectionExampleScenario.node[578].nic.phy80211p 	busyTime 	0
scalar IntersectionExampleScenario.node[578].nic.mac1609_4 	ReceivedUnicastPackets 	0
scalar IntersectionExampleScenario.node[578].nic.mac1609_4 	ReceivedBroadcasts 	0
scalar IntersectionExampleScenario.node[578].nic.mac1609_4 	SentPackets 	0
scalar IntersectionExampleScenario.node[578].nic.mac1609_4 	SNIRLostPackets 	0
scalar IntersectionExampleScenario.node[578].nic.mac1609_4 	RXTXLostPackets 	0
scalar IntersectionExampleScenario.node[578].nic.mac1609_4 	TotalLostPackets 	0
scalar IntersectionExampleScenario.node[578].nic.mac1609_4 	DroppedPacketsInMac 	0
scalar IntersectionExampleScenario.node[578].nic.mac1609_4 	TooLittleTime 	0
scalar IntersectionExampleScenario.node[578].nic.mac1609_4 	TimesIntoBackoff 	0
scalar IntersectionExampleScenario.node[578].nic.mac1609_4 	SlotsBackoff 	0
scalar IntersectionExampleScenario.node[578].nic.mac1609_4 	NumInternalContention 	0
scalar IntersectionExampleScenario.node[578].nic.mac1609_4 	totalBusyTime 	0
scalar IntersectionExampleScenario.node[578].veinsmobility 	startTime 	1777.25
scalar IntersectionExampleScenario.node[578].veinsmobility 	totalTime 	22.75
scalar IntersectionExampleScenario.node[578].veinsmobility 	stopTime 	1800
scalar IntersectionExampleScenario.node[578].veinsmobility 	minSpeed 	1.4620659351349
scalar IntersectionExampleScenario.node[578].veinsmobility 	maxSpeed 	15.369374275208
scalar IntersectionExampleScenario.node[578].veinsmobility 	totalDistance 	257.65054321289
scalar IntersectionExampleScenario.node[578].veinsmobility 	totalCO2Emission 	57.317822114049
scalar IntersectionExampleScenario.node[579].appl 	VehicleRemoved 	0
scalar IntersectionExampleScenario.node[579].appl 	ArrivedAtDest 	0
scalar IntersectionExampleScenario.node[579].appl 	IntersectionEnterTime 	1778.25
scalar IntersectionExampleScenario.node[579].appl 	IntersectionExitTime 	-1
scalar IntersectionExampleScenario.node[579].appl 	NumberOfCollisions 	0
scalar IntersectionExampleScenario.node[579].nic.phy80211p 	busyTime 	0
scalar IntersectionExampleScenario.node[579].nic.mac1609_4 	ReceivedUnicastPackets 	0
scalar IntersectionExampleScenario.node[579].nic.mac1609_4 	ReceivedBroadcasts 	0
scalar IntersectionExampleScenario.node[579].nic.mac1609_4 	SentPackets 	0
scalar IntersectionExampleScenario.node[579].nic.mac1609_4 	SNIRLostPackets 	0
scalar IntersectionExampleScenario.node[579].nic.mac1609_4 	RXTXLostPackets 	0
scalar IntersectionExampleScenario.node[579].nic.mac1609_4 	TotalLostPackets 	0
scalar IntersectionExampleScenario.node[579].nic.mac1609_4 	DroppedPacketsInMac 	0
scalar IntersectionExampleScenario.node[579].nic.mac1609_4 	TooLittleTime 	0
scalar IntersectionExampleScenario.node[579].nic.mac1609_4 	TimesIntoBackoff 	0
scalar IntersectionExampleScenario.node[579].nic.mac1609_4 	SlotsBackoff 	0
scalar IntersectionExampleScenario.node[579].nic.mac1609_4 	NumInternalContention 	0
scalar IntersectionExampleScenario.node[579].nic.mac1609_4 	totalBusyTime 	0
scalar IntersectionExampleScenario.node[579].veinsmobility 	startTime 	1778.25
scalar IntersectionExampleScenario.node[579].veinsmobility 	totalTime 	21.75
scalar IntersectionExampleScenario.node[579].veinsmobility 	stopTime 	1800
scalar IntersectionExampleScenario.node[579].veinsmobility 	minSpeed 	2.5466146469116
scalar IntersectionExampleScenario.node[579].veinsmobility 	maxSpeed 	15.64999961853
scalar IntersectionExampleScenario.node[579].veinsmobility 	totalDistance 	286.61807250977
scalar IntersectionExampleScenario.node[579].veinsmobility 	totalCO2Emission 	65.604111727064
scalar IntersectionExampleScenario.node[580].appl 	VehicleRemoved 	0
scalar IntersectionExampleScenario.node[580].appl 	ArrivedAtDest 	0
scalar IntersectionExampleScenario.node[580].appl 	IntersectionEnterTime 	1790
scalar IntersectionExampleScenario.node[580].appl 	IntersectionExitTime 	-1
scalar IntersectionExampleScenario.node[580].appl 	NumberOfCollisions 	0
scalar IntersectionExampleScenario.node[580].nic.phy80211p 	busyTime 	0
scalar IntersectionExampleScenario.node[580].nic.mac1609_4 	ReceivedUnicastPackets 	0
scalar IntersectionExampleScenario.node[580].nic.mac1609_4 	ReceivedBroadcasts 	0
scalar IntersectionExampleScenario.node[580].nic.mac1609_4 	SentPackets 	0
scalar IntersectionExampleScenario.node[580].nic.mac1609_4 	SNIRLostPackets 	0
scalar IntersectionExampleScenario.node[580].nic.mac1609_4 	RXTXLostPackets 	0
scalar IntersectionExampleScenario.node[580].nic.mac1609_4 	TotalLostPackets 	0
scalar IntersectionExampleScenario.node[580].nic.mac1609_4 	DroppedPacketsInMac 	0
scalar IntersectionExampleScenario.node[580].nic.mac1609_4 	TooLittleTime 	0
scalar IntersectionExampleScenario.node[580].nic.mac1609_4 	TimesIntoBackoff 	0
scalar IntersectionExampleScenario.node[580].nic.mac1609_4 	SlotsBackoff 	0
scalar IntersectionExampleScenario.node[580].nic.mac1609_4 	NumInternalContention 	0
scalar IntersectionExampleScenario.node[580].nic.mac1609_4 	totalBusyTime 	0
scalar IntersectionExampleScenario.node[580].veinsmobility 	startTime 	1790
scalar IntersectionExampleScenario.node[580].veinsmobility 	totalTime 	10
scalar IntersectionExampleScenario.node[580].veinsmobility 	stopTime 	1800
scalar IntersectionExampleScenario.node[580].veinsmobility 	minSpeed 	5.6500000953674
scalar IntersectionExampleScenario.node[580].veinsmobility 	maxSpeed 	15.02499961853
scalar IntersectionExampleScenario.node[580].veinsmobility 	totalDistance 	129.580909729
scalar IntersectionExampleScenario.node[580].veinsmobility 	totalCO2Emission 	42.999704575649
scalar IntersectionExampleScenario.node[581].appl 	VehicleRemoved 	0
scalar IntersectionExampleScenario.node[581].appl 	ArrivedAtDest 	0
scalar IntersectionExampleScenario.node[581].appl 	IntersectionEnterTime 	1791.5
scalar IntersectionExampleScenario.node[581].appl 	IntersectionExitTime 	-1
scalar IntersectionExampleScenario.node[581].appl 	NumberOfCollisions 	0
scalar IntersectionExampleScenario.node[581].nic.phy80211p 	busyTime 	0
scalar IntersectionExampleScenario.node[581].nic.mac1609_4 	ReceivedUnicastPackets 	0
scalar IntersectionExampleScenario.node[581].nic.mac1609_4 	ReceivedBroadcasts 	0
scalar IntersectionExampleScenario.node[581].nic.mac1609_4 	SentPackets 	0
scalar IntersectionExampleScenario.node[581].nic.mac1609_4 	SNIRLostPackets 	0
scalar IntersectionExampleScenario.node[581].nic.mac1609_4 	RXTXLostPackets 	0
scalar IntersectionExampleScenario.node[581].nic.mac1609_4 	TotalLostPackets 	0
scalar IntersectionExampleScenario.node[581].nic.mac1609_4 	DroppedPacketsInMac 	0
scalar IntersectionExampleScenario.node[581].nic.mac1609_4 	TooLittleTime 	0
scalar IntersectionExampleScenario.node[581].nic.mac1609_4 	TimesIntoBackoff 	0
scalar IntersectionExampleScenario.node[581].nic.mac1609_4 	SlotsBackoff 	0
scalar IntersectionExampleScenario.node[581].nic.mac1609_4 	NumInternalContention 	0
scalar IntersectionExampleScenario.node[581].nic.mac1609_4 	totalBusyTime 	0
scalar IntersectionExampleScenario.node[581].veinsmobility 	startTime 	1791.5
scalar IntersectionExampleScenario.node[581].veinsmobility 	totalTime 	8.5
scalar IntersectionExampleScenario.node[581].veinsmobility 	stopTime 	1800
scalar IntersectionExampleScenario.node[581].veinsmobility 	minSpeed 	5.6500000953674
scalar IntersectionExampleScenario.node[581].veinsmobility 	maxSpeed 	15.02499961853
scalar IntersectionExampleScenario.node[581].veinsmobility 	totalDistance 	106.45153808594
scalar IntersectionExampleScenario.node[581].veinsmobility 	totalCO2Emission 	38.979477459421
scalar IntersectionExampleScenario.node[582].appl 	VehicleRemoved 	0
scalar IntersectionExampleScenario.node[582].appl 	ArrivedAtDest 	0
scalar IntersectionExampleScenario.node[582].appl 	IntersectionEnterTime 	1791.75
scalar IntersectionExampleScenario.node[582].appl 	IntersectionExitTime 	-1
scalar IntersectionExampleScenario.node[582].appl 	NumberOfCollisions 	0
scalar IntersectionExampleScenario.node[582].nic.phy80211p 	busyTime 	0
scalar IntersectionExampleScenario.node[582].nic.mac1609_4 	ReceivedUnicastPackets 	0
scalar IntersectionExampleScenario.node[582].nic.mac1609_4 	ReceivedBroadcasts 	0
scalar IntersectionExampleScenario.node[582].nic.mac1609_4 	SentPackets 	0
scalar IntersectionExampleScenario.node[582].nic.mac1609_4 	SNIRLostPackets 	0
scalar IntersectionExampleScenario.node[582].nic.mac1609_4 	RXTXLostPackets 	0
scalar IntersectionExampleScenario.node[582].nic.mac1609_4 	TotalLostPackets 	0
scalar IntersectionExampleScenario.node[582].nic.mac1609_4 	DroppedPacketsInMac 	0
scalar IntersectionExampleScenario.node[582].nic.mac1609_4 	TooLittleTime 	0
scalar IntersectionExampleScenario.node[582].nic.mac1609_4 	TimesIntoBackoff 	0
scalar IntersectionExampleScenario.node[582].nic.mac1609_4 	SlotsBackoff 	0
scalar IntersectionExampleScenario.node[582].nic.mac1609_4 	NumInternalContention 	0
scalar IntersectionExampleScenario.node[582].nic.mac1609_4 	totalBusyTime 	0
scalar IntersectionExampleScenario.node[582].veinsmobility 	startTime 	1791.75
scalar IntersectionExampleScenario.node[582].veinsmobility 	totalTime 	8.25
scalar IntersectionExampleScenario.node[582].veinsmobility 	stopTime 	1800
scalar IntersectionExampleScenario.node[582].veinsmobility 	minSpeed 	5.6500000953674
scalar IntersectionExampleScenario.node[582].veinsmobility 	maxSpeed 	15.02499961853
scalar IntersectionExampleScenario.node[582].veinsmobility 	totalDistance 	102.36421966553
scalar IntersectionExampleScenario.node[582].veinsmobility 	totalCO2Emission 	38.102604648561
scalar IntersectionExampleScenario.node[583].appl 	VehicleRemoved 	0
scalar IntersectionExampleScenario.node[583].appl 	ArrivedAtDest 	0
scalar IntersectionExampleScenario.node[583].appl 	IntersectionEnterTime 	1796.5
scalar IntersectionExampleScenario.node[583].appl 	IntersectionExitTime 	-1
scalar IntersectionExampleScenario.node[583].appl 	NumberOfCollisions 	0
scalar IntersectionExampleScenario.node[583].nic.phy80211p 	busyTime 	0
scalar IntersectionExampleScenario.node[583].nic.mac1609_4 	ReceivedUnicastPackets 	0
scalar IntersectionExampleScenario.node[583].nic.mac1609_4 	ReceivedBroadcasts 	0
scalar IntersectionExampleScenario.node[583].nic.mac1609_4 	SentPackets 	0
scalar IntersectionExampleScenario.node[583].nic.mac1609_4 	SNIRLostPackets 	0
scalar IntersectionExampleScenario.node[583].nic.mac1609_4 	RXTXLostPackets 	0
scalar IntersectionExampleScenario.node[583].nic.mac1609_4 	TotalLostPackets 	0
scalar IntersectionExampleScenario.node[583].nic.mac1609_4 	DroppedPacketsInMac 	0
scalar IntersectionExampleScenario.node[583].nic.mac1609_4 	TooLittleTime 	0
scalar IntersectionExampleScenario.node[583].nic.mac1609_4 	TimesIntoBackoff 	0
scalar IntersectionExampleScenario.node[583].nic.mac1609_4 	SlotsBackoff 	0
scalar IntersectionExampleScenario.node[583].nic.mac1609_4 	NumInternalContention 	0
scalar IntersectionExampleScenario.node[583].nic.mac1609_4 	totalBusyTime 	0
scalar IntersectionExampleScenario.node[583].veinsmobility 	startTime 	1796.5
scalar IntersectionExampleScenario.node[583].veinsmobility 	totalTime 	3.5
scalar IntersectionExampleScenario.node[583].veinsmobility 	stopTime 	1800
scalar IntersectionExampleScenario.node[583].veinsmobility 	minSpeed 	5.6500000953674
scalar IntersectionExampleScenario.node[583].veinsmobility 	maxSpeed 	13.77499961853
scalar IntersectionExampleScenario.node[583].veinsmobility 	totalDistance 	32.899993896484
scalar IntersectionExampleScenario.node[583].veinsmobility 	totalCO2Emission 	25.161289661203
scalar IntersectionExampleScenario.node[584].appl 	VehicleRemoved 	0
scalar IntersectionExampleScenario.node[584].appl 	ArrivedAtDest 	0
scalar IntersectionExampleScenario.node[584].appl 	IntersectionEnterTime 	1799
scalar IntersectionExampleScenario.node[584].appl 	IntersectionExitTime 	-1
scalar IntersectionExampleScenario.node[584].appl 	NumberOfCollisions 	0
scalar IntersectionExampleScenario.node[584].nic.phy80211p 	busyTime 	0
scalar IntersectionExampleScenario.node[584].nic.mac1609_4 	ReceivedUnicastPackets 	0
scalar IntersectionExampleScenario.node[584].nic.mac1609_4 	ReceivedBroadcasts 	0
scalar IntersectionExampleScenario.node[584].nic.mac1609_4 	SentPackets 	0
scalar IntersectionExampleScenario.node[584].nic.mac1609_4 	SNIRLostPackets 	0
scalar IntersectionExampleScenario.node[584].nic.mac1609_4 	RXTXLostPackets 	0
scalar IntersectionExampleScenario.node[584].nic.mac1609_4 	TotalLostPackets 	0
scalar IntersectionExampleScenario.node[584].nic.mac1609_4 	DroppedPacketsInMac 	0
scalar IntersectionExampleScenario.node[584].nic.mac1609_4 	TooLittleTime 	0
scalar IntersectionExampleScenario.node[584].nic.mac1609_4 	TimesIntoBackoff 	0
scalar IntersectionExampleScenario.node[584].nic.mac1609_4 	SlotsBackoff 	0
scalar IntersectionExampleScenario.node[584].nic.mac1609_4 	NumInternalContention 	0
scalar IntersectionExampleScenario.node[584].nic.mac1609_4 	totalBusyTime 	0
scalar IntersectionExampleScenario.node[584].veinsmobility 	startTime 	1799
scalar IntersectionExampleScenario.node[584].veinsmobility 	totalTime 	1
scalar IntersectionExampleScenario.node[584].veinsmobility 	stopTime 	1800
scalar IntersectionExampleScenario.node[584].veinsmobility 	minSpeed 	5.6500000953674
scalar IntersectionExampleScenario.node[584].veinsmobility 	maxSpeed 	7.5250000953674
scalar IntersectionExampleScenario.node[584].veinsmobility 	totalDistance 	6.2749938964844
scalar IntersectionExampleScenario.node[584].veinsmobility 	totalCO2Emission 	4.2232135025359
scalar IntersectionExampleScenario.node[585].appl 	VehicleRemoved 	0
scalar IntersectionExampleScenario.node[585].appl 	ArrivedAtDest 	0
scalar IntersectionExampleScenario.node[585].appl 	IntersectionEnterTime 	1799
scalar IntersectionExampleScenario.node[585].appl 	IntersectionExitTime 	-1
scalar IntersectionExampleScenario.node[585].appl 	NumberOfCollisions 	0
scalar IntersectionExampleScenario.node[585].nic.phy80211p 	busyTime 	0
scalar IntersectionExampleScenario.node[585].nic.mac1609_4 	ReceivedUnicastPackets 	0
scalar IntersectionExampleScenario.node[585].nic.mac1609_4 	ReceivedBroadcasts 	0
scalar IntersectionExampleScenario.node[585].nic.mac1609_4 	SentPackets 	0
scalar IntersectionExampleScenario.node[585].nic.mac1609_4 	SNIRLostPackets 	0
scalar IntersectionExampleScenario.node[585].nic.mac1609_4 	RXTXLostPackets 	0
scalar IntersectionExampleScenario.node[585].nic.mac1609_4 	TotalLostPackets 	0
scalar IntersectionExampleScenario.node[585].nic.mac1609_4 	DroppedPacketsInMac 	0
scalar IntersectionExampleScenario.node[585].nic.mac1609_4 	TooLittleTime 	0
scalar IntersectionExampleScenario.node[585].nic.mac1609_4 	TimesIntoBackoff 	0
scalar IntersectionExampleScenario.node[585].nic.mac1609_4 	SlotsBackoff 	0
scalar IntersectionExampleScenario.node[585].nic.mac1609_4 	NumInternalContention 	0
scalar IntersectionExampleScenario.node[585].nic.mac1609_4 	totalBusyTime 	0
scalar IntersectionExampleScenario.node[585].veinsmobility 	startTime 	1799
scalar IntersectionExampleScenario.node[585].veinsmobility 	totalTime 	1
scalar IntersectionExampleScenario.node[585].veinsmobility 	stopTime 	1800
scalar IntersectionExampleScenario.node[585].veinsmobility 	minSpeed 	5.6500000953674
scalar IntersectionExampleScenario.node[585].veinsmobility 	maxSpeed 	7.5250000953674
scalar IntersectionExampleScenario.node[585].veinsmobility 	totalDistance 	6.2749938964844
scalar IntersectionExampleScenario.node[585].veinsmobility 	totalCO2Emission 	4.2232135025359
