version 2
run nodebug-14-20200605-15:13:43-11144
attr configname nodebug
attr datetime 20200605-15:13:43
attr experiment nodebug
attr inifile omnetpp.ini
attr iterationvars ""
attr iterationvars2 $repetition=14
attr measurement ""
attr network "\"org.car2x.veins.modules.application.ExtTraCIScenarioManagerLaunchd.IntersectionExampleScenario\""
attr processid 11144
attr repetition 14
attr replication #14
attr resultdir results
attr runnumber 14
attr seedset 14
param **.coreDebug false
param **.debug false
param *.**.nic.mac1609_4.bitrate 18Mbps
param *.**.nic.mac1609_4.txPower 20mW
param *.**.nic.mac1609_4.useServiceChannel false
param *.**.nic.phy80211p.analogueModels "xmldoc(\"config.xml\")"
param *.**.nic.phy80211p.decider "xmldoc(\"config.xml\")"
param *.**.nic.phy80211p.sensitivity -89dBm
param *.**.nic.phy80211p.thermalNoise -110dBm
param *.**.nic.phy80211p.usePropagationDelay true
param *.**.nic.phy80211p.useThermalNoise true
param *.annotations.draw false
param *.connectionManager.alpha 2.0
param *.connectionManager.carrierFrequency "5.890e9 Hz"
param *.connectionManager.pMax 20mW
param *.connectionManager.sat -89dBm
param *.connectionManager.sendDirect true
param *.manager.autoShutdown true
param *.manager.host "\"localhost\""
param *.manager.launchConfig "xmldoc(\"paramics.launchd.xml\")"
param *.manager.margin 25
param *.manager.moduleDisplayString "\"\""
param *.manager.moduleName "\"node\""
param *.manager.moduleType "\"org.car2x.veins.nodes.Car\""
param *.manager.port 9999
param *.manager.updateInterval 250ms
param *.node[*0].veinsmobility.accidentCount 0
param *.node[*0].veinsmobility.accidentDuration 30s
param *.node[*0].veinsmobility.accidentStart 75s
param *.node[*].appl.LiderSelectZoneRadio 55.0
param *.node[*].appl.ShareDataZoneRadio 110.0
param *.node[*].appl.TiempoSemaforo 30.0
param *.node[*].appl.beaconInterval 1s
param *.node[*].appl.beaconPriority 3
param *.node[*].appl.dataOnSch false
param *.node[*].appl.dataPriority 2
param *.node[*].appl.debug false
param *.node[*].appl.headerLength "256 bit"
param *.node[*].appl.maxOffset 0.005s
param *.node[*].appl.sendBeacons false
param *.node[*].appl.sendData true
param *.node[*].applType "\"Dummy\""
param *.node[*].mobilityType "\"TraCIMobility\""
param *.node[*].mobilityType.debug true
param *.node[*].veinsmobility.x 0
param *.node[*].veinsmobility.y 0
param *.node[*].veinsmobility.z 1.895
param *.node[*].veinsmobilityType "\"org.car2x.veins.modules.mobility.traci.TraCIMobility\""
param *.node[*].veinsmobilityType.debug true
param *.playgroundSizeX 8500m
param *.playgroundSizeY 8500m
param *.playgroundSizeZ 50m
param *.world.use2D false
param *.world.useTorus false

scalar IntersectionExampleScenario.node[0].appl 	VehicleRemoved 	0
scalar IntersectionExampleScenario.node[0].appl 	ArrivedAtDest 	1
scalar IntersectionExampleScenario.node[0].appl 	IntersectionEnterTime 	0.5
scalar IntersectionExampleScenario.node[0].appl 	IntersectionExitTime 	23.501005868602
scalar IntersectionExampleScenario.node[0].appl 	NumberOfCollisions 	0
scalar IntersectionExampleScenario.node[0].nic.phy80211p 	busyTime 	0
scalar IntersectionExampleScenario.node[0].nic.mac1609_4 	ReceivedUnicastPackets 	0
scalar IntersectionExampleScenario.node[0].nic.mac1609_4 	ReceivedBroadcasts 	0
scalar IntersectionExampleScenario.node[0].nic.mac1609_4 	SentPackets 	0
scalar IntersectionExampleScenario.node[0].nic.mac1609_4 	SNIRLostPackets 	0
scalar IntersectionExampleScenario.node[0].nic.mac1609_4 	RXTXLostPackets 	0
scalar IntersectionExampleScenario.node[0].nic.mac1609_4 	TotalLostPackets 	0
scalar IntersectionExampleScenario.node[0].nic.mac1609_4 	DroppedPacketsInMac 	0
scalar IntersectionExampleScenario.node[0].nic.mac1609_4 	TooLittleTime 	0
scalar IntersectionExampleScenario.node[0].nic.mac1609_4 	TimesIntoBackoff 	0
scalar IntersectionExampleScenario.node[0].nic.mac1609_4 	SlotsBackoff 	0
scalar IntersectionExampleScenario.node[0].nic.mac1609_4 	NumInternalContention 	0
scalar IntersectionExampleScenario.node[0].nic.mac1609_4 	totalBusyTime 	0
scalar IntersectionExampleScenario.node[0].veinsmobility 	startTime 	0.5
scalar IntersectionExampleScenario.node[0].veinsmobility 	totalTime 	39.25
scalar IntersectionExampleScenario.node[0].veinsmobility 	stopTime 	40
scalar IntersectionExampleScenario.node[0].veinsmobility 	minSpeed 	5.6500000953674
scalar IntersectionExampleScenario.node[0].veinsmobility 	maxSpeed 	15.64999961853
scalar IntersectionExampleScenario.node[0].veinsmobility 	totalDistance 	549.99318491532
scalar IntersectionExampleScenario.node[0].veinsmobility 	totalCO2Emission 	123.03689066274
scalar IntersectionExampleScenario.node[1].appl 	VehicleRemoved 	0
scalar IntersectionExampleScenario.node[1].appl 	ArrivedAtDest 	1
scalar IntersectionExampleScenario.node[1].appl 	IntersectionEnterTime 	4
scalar IntersectionExampleScenario.node[1].appl 	IntersectionExitTime 	27.789785553527
scalar IntersectionExampleScenario.node[1].appl 	NumberOfCollisions 	0
scalar IntersectionExampleScenario.node[1].nic.phy80211p 	busyTime 	0
scalar IntersectionExampleScenario.node[1].nic.mac1609_4 	ReceivedUnicastPackets 	0
scalar IntersectionExampleScenario.node[1].nic.mac1609_4 	ReceivedBroadcasts 	0
scalar IntersectionExampleScenario.node[1].nic.mac1609_4 	SentPackets 	0
scalar IntersectionExampleScenario.node[1].nic.mac1609_4 	SNIRLostPackets 	0
scalar IntersectionExampleScenario.node[1].nic.mac1609_4 	RXTXLostPackets 	0
scalar IntersectionExampleScenario.node[1].nic.mac1609_4 	TotalLostPackets 	0
scalar IntersectionExampleScenario.node[1].nic.mac1609_4 	DroppedPacketsInMac 	0
scalar IntersectionExampleScenario.node[1].nic.mac1609_4 	TooLittleTime 	0
scalar IntersectionExampleScenario.node[1].nic.mac1609_4 	TimesIntoBackoff 	0
scalar IntersectionExampleScenario.node[1].nic.mac1609_4 	SlotsBackoff 	0
scalar IntersectionExampleScenario.node[1].nic.mac1609_4 	NumInternalContention 	0
scalar IntersectionExampleScenario.node[1].nic.mac1609_4 	totalBusyTime 	0
scalar IntersectionExampleScenario.node[1].veinsmobility 	startTime 	4
scalar IntersectionExampleScenario.node[1].veinsmobility 	totalTime 	40.75
scalar IntersectionExampleScenario.node[1].veinsmobility 	stopTime 	45
scalar IntersectionExampleScenario.node[1].veinsmobility 	minSpeed 	5.6500000953674
scalar IntersectionExampleScenario.node[1].veinsmobility 	maxSpeed 	15.02499961853
scalar IntersectionExampleScenario.node[1].veinsmobility 	totalDistance 	550.9144666001
scalar IntersectionExampleScenario.node[1].veinsmobility 	totalCO2Emission 	119.02187878506
scalar IntersectionExampleScenario.node[2].appl 	VehicleRemoved 	0
scalar IntersectionExampleScenario.node[2].appl 	ArrivedAtDest 	1
scalar IntersectionExampleScenario.node[2].appl 	IntersectionEnterTime 	6.5
scalar IntersectionExampleScenario.node[2].appl 	IntersectionExitTime 	39.29278182835
scalar IntersectionExampleScenario.node[2].appl 	NumberOfCollisions 	0
scalar IntersectionExampleScenario.node[2].nic.phy80211p 	busyTime 	0
scalar IntersectionExampleScenario.node[2].nic.mac1609_4 	ReceivedUnicastPackets 	0
scalar IntersectionExampleScenario.node[2].nic.mac1609_4 	ReceivedBroadcasts 	0
scalar IntersectionExampleScenario.node[2].nic.mac1609_4 	SentPackets 	0
scalar IntersectionExampleScenario.node[2].nic.mac1609_4 	SNIRLostPackets 	0
scalar IntersectionExampleScenario.node[2].nic.mac1609_4 	RXTXLostPackets 	0
scalar IntersectionExampleScenario.node[2].nic.mac1609_4 	TotalLostPackets 	0
scalar IntersectionExampleScenario.node[2].nic.mac1609_4 	DroppedPacketsInMac 	0
scalar IntersectionExampleScenario.node[2].nic.mac1609_4 	TooLittleTime 	0
scalar IntersectionExampleScenario.node[2].nic.mac1609_4 	TimesIntoBackoff 	0
scalar IntersectionExampleScenario.node[2].nic.mac1609_4 	SlotsBackoff 	0
scalar IntersectionExampleScenario.node[2].nic.mac1609_4 	NumInternalContention 	0
scalar IntersectionExampleScenario.node[2].nic.mac1609_4 	totalBusyTime 	0
scalar IntersectionExampleScenario.node[2].veinsmobility 	startTime 	6.5
scalar IntersectionExampleScenario.node[2].veinsmobility 	totalTime 	48.25
scalar IntersectionExampleScenario.node[2].veinsmobility 	stopTime 	55
scalar IntersectionExampleScenario.node[2].veinsmobility 	minSpeed 	0
scalar IntersectionExampleScenario.node[2].veinsmobility 	maxSpeed 	16.27499961853
scalar IntersectionExampleScenario.node[2].veinsmobility 	totalDistance 	551.97518920898
scalar IntersectionExampleScenario.node[2].veinsmobility 	totalCO2Emission 	144.9952897543
scalar IntersectionExampleScenario.node[4].appl 	VehicleRemoved 	0
scalar IntersectionExampleScenario.node[4].appl 	ArrivedAtDest 	1
scalar IntersectionExampleScenario.node[4].appl 	IntersectionEnterTime 	13
scalar IntersectionExampleScenario.node[4].appl 	IntersectionExitTime 	40.8453923747
scalar IntersectionExampleScenario.node[4].appl 	NumberOfCollisions 	0
scalar IntersectionExampleScenario.node[4].nic.phy80211p 	busyTime 	0
scalar IntersectionExampleScenario.node[4].nic.mac1609_4 	ReceivedUnicastPackets 	0
scalar IntersectionExampleScenario.node[4].nic.mac1609_4 	ReceivedBroadcasts 	0
scalar IntersectionExampleScenario.node[4].nic.mac1609_4 	SentPackets 	0
scalar IntersectionExampleScenario.node[4].nic.mac1609_4 	SNIRLostPackets 	0
scalar IntersectionExampleScenario.node[4].nic.mac1609_4 	RXTXLostPackets 	0
scalar IntersectionExampleScenario.node[4].nic.mac1609_4 	TotalLostPackets 	0
scalar IntersectionExampleScenario.node[4].nic.mac1609_4 	DroppedPacketsInMac 	0
scalar IntersectionExampleScenario.node[4].nic.mac1609_4 	TooLittleTime 	0
scalar IntersectionExampleScenario.node[4].nic.mac1609_4 	TimesIntoBackoff 	0
scalar IntersectionExampleScenario.node[4].nic.mac1609_4 	SlotsBackoff 	0
scalar IntersectionExampleScenario.node[4].nic.mac1609_4 	NumInternalContention 	0
scalar IntersectionExampleScenario.node[4].nic.mac1609_4 	totalBusyTime 	0
scalar IntersectionExampleScenario.node[4].veinsmobility 	startTime 	13
scalar IntersectionExampleScenario.node[4].veinsmobility 	totalTime 	43.75
scalar IntersectionExampleScenario.node[4].veinsmobility 	stopTime 	57
scalar IntersectionExampleScenario.node[4].veinsmobility 	minSpeed 	3.5940253734589
scalar IntersectionExampleScenario.node[4].veinsmobility 	maxSpeed 	16
scalar IntersectionExampleScenario.node[4].veinsmobility 	totalDistance 	549.20568808092
scalar IntersectionExampleScenario.node[4].veinsmobility 	totalCO2Emission 	135.18640271788
scalar IntersectionExampleScenario.node[5].appl 	VehicleRemoved 	0
scalar IntersectionExampleScenario.node[5].appl 	ArrivedAtDest 	1
scalar IntersectionExampleScenario.node[5].appl 	IntersectionEnterTime 	13.75
scalar IntersectionExampleScenario.node[5].appl 	IntersectionExitTime 	42.559363220789
scalar IntersectionExampleScenario.node[5].appl 	NumberOfCollisions 	0
scalar IntersectionExampleScenario.node[5].nic.phy80211p 	busyTime 	0
scalar IntersectionExampleScenario.node[5].nic.mac1609_4 	ReceivedUnicastPackets 	0
scalar IntersectionExampleScenario.node[5].nic.mac1609_4 	ReceivedBroadcasts 	0
scalar IntersectionExampleScenario.node[5].nic.mac1609_4 	SentPackets 	0
scalar IntersectionExampleScenario.node[5].nic.mac1609_4 	SNIRLostPackets 	0
scalar IntersectionExampleScenario.node[5].nic.mac1609_4 	RXTXLostPackets 	0
scalar IntersectionExampleScenario.node[5].nic.mac1609_4 	TotalLostPackets 	0
scalar IntersectionExampleScenario.node[5].nic.mac1609_4 	DroppedPacketsInMac 	0
scalar IntersectionExampleScenario.node[5].nic.mac1609_4 	TooLittleTime 	0
scalar IntersectionExampleScenario.node[5].nic.mac1609_4 	TimesIntoBackoff 	0
scalar IntersectionExampleScenario.node[5].nic.mac1609_4 	SlotsBackoff 	0
scalar IntersectionExampleScenario.node[5].nic.mac1609_4 	NumInternalContention 	0
scalar IntersectionExampleScenario.node[5].nic.mac1609_4 	totalBusyTime 	0
scalar IntersectionExampleScenario.node[5].veinsmobility 	startTime 	13.75
scalar IntersectionExampleScenario.node[5].veinsmobility 	totalTime 	43.75
scalar IntersectionExampleScenario.node[5].veinsmobility 	stopTime 	57.75
scalar IntersectionExampleScenario.node[5].veinsmobility 	minSpeed 	4.2920255661011
scalar IntersectionExampleScenario.node[5].veinsmobility 	maxSpeed 	16.336002349854
scalar IntersectionExampleScenario.node[5].veinsmobility 	totalDistance 	575.64598083496
scalar IntersectionExampleScenario.node[5].veinsmobility 	totalCO2Emission 	145.66792667141
scalar IntersectionExampleScenario.node[12].appl 	VehicleRemoved 	0
scalar IntersectionExampleScenario.node[12].appl 	ArrivedAtDest 	1
scalar IntersectionExampleScenario.node[12].appl 	IntersectionEnterTime 	39
scalar IntersectionExampleScenario.node[12].appl 	IntersectionExitTime 	62.272970643709
scalar IntersectionExampleScenario.node[12].appl 	NumberOfCollisions 	0
scalar IntersectionExampleScenario.node[12].nic.phy80211p 	busyTime 	0
scalar IntersectionExampleScenario.node[12].nic.mac1609_4 	ReceivedUnicastPackets 	0
scalar IntersectionExampleScenario.node[12].nic.mac1609_4 	ReceivedBroadcasts 	0
scalar IntersectionExampleScenario.node[12].nic.mac1609_4 	SentPackets 	0
scalar IntersectionExampleScenario.node[12].nic.mac1609_4 	SNIRLostPackets 	0
scalar IntersectionExampleScenario.node[12].nic.mac1609_4 	RXTXLostPackets 	0
scalar IntersectionExampleScenario.node[12].nic.mac1609_4 	TotalLostPackets 	0
scalar IntersectionExampleScenario.node[12].nic.mac1609_4 	DroppedPacketsInMac 	0
scalar IntersectionExampleScenario.node[12].nic.mac1609_4 	TooLittleTime 	0
scalar IntersectionExampleScenario.node[12].nic.mac1609_4 	TimesIntoBackoff 	0
scalar IntersectionExampleScenario.node[12].nic.mac1609_4 	SlotsBackoff 	0
scalar IntersectionExampleScenario.node[12].nic.mac1609_4 	NumInternalContention 	0
scalar IntersectionExampleScenario.node[12].nic.mac1609_4 	totalBusyTime 	0
scalar IntersectionExampleScenario.node[12].veinsmobility 	startTime 	39
scalar IntersectionExampleScenario.node[12].veinsmobility 	totalTime 	40
scalar IntersectionExampleScenario.node[12].veinsmobility 	stopTime 	79.25
scalar IntersectionExampleScenario.node[12].veinsmobility 	minSpeed 	5.6500000953674
scalar IntersectionExampleScenario.node[12].veinsmobility 	maxSpeed 	15.875
scalar IntersectionExampleScenario.node[12].veinsmobility 	totalDistance 	545.62874100726
scalar IntersectionExampleScenario.node[12].veinsmobility 	totalCO2Emission 	127.12384671915
scalar IntersectionExampleScenario.node[3].appl 	VehicleRemoved 	0
scalar IntersectionExampleScenario.node[3].appl 	ArrivedAtDest 	1
scalar IntersectionExampleScenario.node[3].appl 	IntersectionEnterTime 	10
scalar IntersectionExampleScenario.node[3].appl 	IntersectionExitTime 	67.526253033197
scalar IntersectionExampleScenario.node[3].appl 	NumberOfCollisions 	0
scalar IntersectionExampleScenario.node[3].nic.phy80211p 	busyTime 	0
scalar IntersectionExampleScenario.node[3].nic.mac1609_4 	ReceivedUnicastPackets 	0
scalar IntersectionExampleScenario.node[3].nic.mac1609_4 	ReceivedBroadcasts 	0
scalar IntersectionExampleScenario.node[3].nic.mac1609_4 	SentPackets 	0
scalar IntersectionExampleScenario.node[3].nic.mac1609_4 	SNIRLostPackets 	0
scalar IntersectionExampleScenario.node[3].nic.mac1609_4 	RXTXLostPackets 	0
scalar IntersectionExampleScenario.node[3].nic.mac1609_4 	TotalLostPackets 	0
scalar IntersectionExampleScenario.node[3].nic.mac1609_4 	DroppedPacketsInMac 	0
scalar IntersectionExampleScenario.node[3].nic.mac1609_4 	TooLittleTime 	0
scalar IntersectionExampleScenario.node[3].nic.mac1609_4 	TimesIntoBackoff 	0
scalar IntersectionExampleScenario.node[3].nic.mac1609_4 	SlotsBackoff 	0
scalar IntersectionExampleScenario.node[3].nic.mac1609_4 	NumInternalContention 	0
scalar IntersectionExampleScenario.node[3].nic.mac1609_4 	totalBusyTime 	0
scalar IntersectionExampleScenario.node[3].veinsmobility 	startTime 	10
scalar IntersectionExampleScenario.node[3].veinsmobility 	totalTime 	73.75
scalar IntersectionExampleScenario.node[3].veinsmobility 	stopTime 	84
scalar IntersectionExampleScenario.node[3].veinsmobility 	minSpeed 	0
scalar IntersectionExampleScenario.node[3].veinsmobility 	maxSpeed 	16.5
scalar IntersectionExampleScenario.node[3].veinsmobility 	totalDistance 	546.10824490935
scalar IntersectionExampleScenario.node[3].veinsmobility 	totalCO2Emission 	170.91104072226
scalar IntersectionExampleScenario.node[7].appl 	VehicleRemoved 	0
scalar IntersectionExampleScenario.node[7].appl 	ArrivedAtDest 	1
scalar IntersectionExampleScenario.node[7].appl 	IntersectionEnterTime 	24
scalar IntersectionExampleScenario.node[7].appl 	IntersectionExitTime 	70.010418645543
scalar IntersectionExampleScenario.node[7].appl 	NumberOfCollisions 	0
scalar IntersectionExampleScenario.node[7].nic.phy80211p 	busyTime 	0
scalar IntersectionExampleScenario.node[7].nic.mac1609_4 	ReceivedUnicastPackets 	0
scalar IntersectionExampleScenario.node[7].nic.mac1609_4 	ReceivedBroadcasts 	0
scalar IntersectionExampleScenario.node[7].nic.mac1609_4 	SentPackets 	0
scalar IntersectionExampleScenario.node[7].nic.mac1609_4 	SNIRLostPackets 	0
scalar IntersectionExampleScenario.node[7].nic.mac1609_4 	RXTXLostPackets 	0
scalar IntersectionExampleScenario.node[7].nic.mac1609_4 	TotalLostPackets 	0
scalar IntersectionExampleScenario.node[7].nic.mac1609_4 	DroppedPacketsInMac 	0
scalar IntersectionExampleScenario.node[7].nic.mac1609_4 	TooLittleTime 	0
scalar IntersectionExampleScenario.node[7].nic.mac1609_4 	TimesIntoBackoff 	0
scalar IntersectionExampleScenario.node[7].nic.mac1609_4 	SlotsBackoff 	0
scalar IntersectionExampleScenario.node[7].nic.mac1609_4 	NumInternalContention 	0
scalar IntersectionExampleScenario.node[7].nic.mac1609_4 	totalBusyTime 	0
scalar IntersectionExampleScenario.node[7].veinsmobility 	startTime 	24
scalar IntersectionExampleScenario.node[7].veinsmobility 	totalTime 	62.25
scalar IntersectionExampleScenario.node[7].veinsmobility 	stopTime 	86.5
scalar IntersectionExampleScenario.node[7].veinsmobility 	minSpeed 	0
scalar IntersectionExampleScenario.node[7].veinsmobility 	maxSpeed 	15.875
scalar IntersectionExampleScenario.node[7].veinsmobility 	totalDistance 	542.65734791161
scalar IntersectionExampleScenario.node[7].veinsmobility 	totalCO2Emission 	154.57570578406
scalar IntersectionExampleScenario.node[8].appl 	VehicleRemoved 	0
scalar IntersectionExampleScenario.node[8].appl 	ArrivedAtDest 	1
scalar IntersectionExampleScenario.node[8].appl 	IntersectionEnterTime 	30
scalar IntersectionExampleScenario.node[8].appl 	IntersectionExitTime 	72.592813919444
scalar IntersectionExampleScenario.node[8].appl 	NumberOfCollisions 	0
scalar IntersectionExampleScenario.node[8].nic.phy80211p 	busyTime 	0
scalar IntersectionExampleScenario.node[8].nic.mac1609_4 	ReceivedUnicastPackets 	0
scalar IntersectionExampleScenario.node[8].nic.mac1609_4 	ReceivedBroadcasts 	0
scalar IntersectionExampleScenario.node[8].nic.mac1609_4 	SentPackets 	0
scalar IntersectionExampleScenario.node[8].nic.mac1609_4 	SNIRLostPackets 	0
scalar IntersectionExampleScenario.node[8].nic.mac1609_4 	RXTXLostPackets 	0
scalar IntersectionExampleScenario.node[8].nic.mac1609_4 	TotalLostPackets 	0
scalar IntersectionExampleScenario.node[8].nic.mac1609_4 	DroppedPacketsInMac 	0
scalar IntersectionExampleScenario.node[8].nic.mac1609_4 	TooLittleTime 	0
scalar IntersectionExampleScenario.node[8].nic.mac1609_4 	TimesIntoBackoff 	0
scalar IntersectionExampleScenario.node[8].nic.mac1609_4 	SlotsBackoff 	0
scalar IntersectionExampleScenario.node[8].nic.mac1609_4 	NumInternalContention 	0
scalar IntersectionExampleScenario.node[8].nic.mac1609_4 	totalBusyTime 	0
scalar IntersectionExampleScenario.node[8].veinsmobility 	startTime 	30
scalar IntersectionExampleScenario.node[8].veinsmobility 	totalTime 	59.75
scalar IntersectionExampleScenario.node[8].veinsmobility 	stopTime 	90
scalar IntersectionExampleScenario.node[8].veinsmobility 	minSpeed 	0
scalar IntersectionExampleScenario.node[8].veinsmobility 	maxSpeed 	15.02499961853
scalar IntersectionExampleScenario.node[8].veinsmobility 	totalDistance 	543.24640093323
scalar IntersectionExampleScenario.node[8].veinsmobility 	totalCO2Emission 	143.61066739664
scalar IntersectionExampleScenario.node[9].appl 	VehicleRemoved 	0
scalar IntersectionExampleScenario.node[9].appl 	ArrivedAtDest 	1
scalar IntersectionExampleScenario.node[9].appl 	IntersectionEnterTime 	30.5
scalar IntersectionExampleScenario.node[9].appl 	IntersectionExitTime 	74.523734817369
scalar IntersectionExampleScenario.node[9].appl 	NumberOfCollisions 	0
scalar IntersectionExampleScenario.node[9].nic.phy80211p 	busyTime 	0
scalar IntersectionExampleScenario.node[9].nic.mac1609_4 	ReceivedUnicastPackets 	0
scalar IntersectionExampleScenario.node[9].nic.mac1609_4 	ReceivedBroadcasts 	0
scalar IntersectionExampleScenario.node[9].nic.mac1609_4 	SentPackets 	0
scalar IntersectionExampleScenario.node[9].nic.mac1609_4 	SNIRLostPackets 	0
scalar IntersectionExampleScenario.node[9].nic.mac1609_4 	RXTXLostPackets 	0
scalar IntersectionExampleScenario.node[9].nic.mac1609_4 	TotalLostPackets 	0
scalar IntersectionExampleScenario.node[9].nic.mac1609_4 	DroppedPacketsInMac 	0
scalar IntersectionExampleScenario.node[9].nic.mac1609_4 	TooLittleTime 	0
scalar IntersectionExampleScenario.node[9].nic.mac1609_4 	TimesIntoBackoff 	0
scalar IntersectionExampleScenario.node[9].nic.mac1609_4 	SlotsBackoff 	0
scalar IntersectionExampleScenario.node[9].nic.mac1609_4 	NumInternalContention 	0
scalar IntersectionExampleScenario.node[9].nic.mac1609_4 	totalBusyTime 	0
scalar IntersectionExampleScenario.node[9].veinsmobility 	startTime 	30.5
scalar IntersectionExampleScenario.node[9].veinsmobility 	totalTime 	60
scalar IntersectionExampleScenario.node[9].veinsmobility 	stopTime 	90.75
scalar IntersectionExampleScenario.node[9].veinsmobility 	minSpeed 	0
scalar IntersectionExampleScenario.node[9].veinsmobility 	maxSpeed 	15.5
scalar IntersectionExampleScenario.node[9].veinsmobility 	totalDistance 	576.23316955566
scalar IntersectionExampleScenario.node[9].veinsmobility 	totalCO2Emission 	154.65143298096
scalar IntersectionExampleScenario.node[15].appl 	VehicleRemoved 	0
scalar IntersectionExampleScenario.node[15].appl 	ArrivedAtDest 	1
scalar IntersectionExampleScenario.node[15].appl 	IntersectionEnterTime 	43.5
scalar IntersectionExampleScenario.node[15].appl 	IntersectionExitTime 	76.846195834776
scalar IntersectionExampleScenario.node[15].appl 	NumberOfCollisions 	0
scalar IntersectionExampleScenario.node[15].nic.phy80211p 	busyTime 	0
scalar IntersectionExampleScenario.node[15].nic.mac1609_4 	ReceivedUnicastPackets 	0
scalar IntersectionExampleScenario.node[15].nic.mac1609_4 	ReceivedBroadcasts 	0
scalar IntersectionExampleScenario.node[15].nic.mac1609_4 	SentPackets 	0
scalar IntersectionExampleScenario.node[15].nic.mac1609_4 	SNIRLostPackets 	0
scalar IntersectionExampleScenario.node[15].nic.mac1609_4 	RXTXLostPackets 	0
scalar IntersectionExampleScenario.node[15].nic.mac1609_4 	TotalLostPackets 	0
scalar IntersectionExampleScenario.node[15].nic.mac1609_4 	DroppedPacketsInMac 	0
scalar IntersectionExampleScenario.node[15].nic.mac1609_4 	TooLittleTime 	0
scalar IntersectionExampleScenario.node[15].nic.mac1609_4 	TimesIntoBackoff 	0
scalar IntersectionExampleScenario.node[15].nic.mac1609_4 	SlotsBackoff 	0
scalar IntersectionExampleScenario.node[15].nic.mac1609_4 	NumInternalContention 	0
scalar IntersectionExampleScenario.node[15].nic.mac1609_4 	totalBusyTime 	0
scalar IntersectionExampleScenario.node[15].veinsmobility 	startTime 	43.5
scalar IntersectionExampleScenario.node[15].veinsmobility 	totalTime 	49.5
scalar IntersectionExampleScenario.node[15].veinsmobility 	stopTime 	93.25
scalar IntersectionExampleScenario.node[15].veinsmobility 	minSpeed 	1.8420667648315
scalar IntersectionExampleScenario.node[15].veinsmobility 	maxSpeed 	16.27499961853
scalar IntersectionExampleScenario.node[15].veinsmobility 	totalDistance 	543.96741506607
scalar IntersectionExampleScenario.node[15].veinsmobility 	totalCO2Emission 	151.92135933178
scalar IntersectionExampleScenario.node[16].appl 	VehicleRemoved 	0
scalar IntersectionExampleScenario.node[16].appl 	ArrivedAtDest 	1
scalar IntersectionExampleScenario.node[16].appl 	IntersectionEnterTime 	43.75
scalar IntersectionExampleScenario.node[16].appl 	IntersectionExitTime 	78.761237176484
scalar IntersectionExampleScenario.node[16].appl 	NumberOfCollisions 	0
scalar IntersectionExampleScenario.node[16].nic.phy80211p 	busyTime 	0
scalar IntersectionExampleScenario.node[16].nic.mac1609_4 	ReceivedUnicastPackets 	0
scalar IntersectionExampleScenario.node[16].nic.mac1609_4 	ReceivedBroadcasts 	0
scalar IntersectionExampleScenario.node[16].nic.mac1609_4 	SentPackets 	0
scalar IntersectionExampleScenario.node[16].nic.mac1609_4 	SNIRLostPackets 	0
scalar IntersectionExampleScenario.node[16].nic.mac1609_4 	RXTXLostPackets 	0
scalar IntersectionExampleScenario.node[16].nic.mac1609_4 	TotalLostPackets 	0
scalar IntersectionExampleScenario.node[16].nic.mac1609_4 	DroppedPacketsInMac 	0
scalar IntersectionExampleScenario.node[16].nic.mac1609_4 	TooLittleTime 	0
scalar IntersectionExampleScenario.node[16].nic.mac1609_4 	TimesIntoBackoff 	0
scalar IntersectionExampleScenario.node[16].nic.mac1609_4 	SlotsBackoff 	0
scalar IntersectionExampleScenario.node[16].nic.mac1609_4 	NumInternalContention 	0
scalar IntersectionExampleScenario.node[16].nic.mac1609_4 	totalBusyTime 	0
scalar IntersectionExampleScenario.node[16].veinsmobility 	startTime 	43.75
scalar IntersectionExampleScenario.node[16].veinsmobility 	totalTime 	51
scalar IntersectionExampleScenario.node[16].veinsmobility 	stopTime 	95
scalar IntersectionExampleScenario.node[16].veinsmobility 	minSpeed 	2.0285401344299
scalar IntersectionExampleScenario.node[16].veinsmobility 	maxSpeed 	16
scalar IntersectionExampleScenario.node[16].veinsmobility 	totalDistance 	574.17121417139
scalar IntersectionExampleScenario.node[16].veinsmobility 	totalCO2Emission 	151.96012815472
scalar IntersectionExampleScenario.node[18].appl 	VehicleRemoved 	0
scalar IntersectionExampleScenario.node[18].appl 	ArrivedAtDest 	1
scalar IntersectionExampleScenario.node[18].appl 	IntersectionEnterTime 	51.75
scalar IntersectionExampleScenario.node[18].appl 	IntersectionExitTime 	80.776185196126
scalar IntersectionExampleScenario.node[18].appl 	NumberOfCollisions 	0
scalar IntersectionExampleScenario.node[18].nic.phy80211p 	busyTime 	0
scalar IntersectionExampleScenario.node[18].nic.mac1609_4 	ReceivedUnicastPackets 	0
scalar IntersectionExampleScenario.node[18].nic.mac1609_4 	ReceivedBroadcasts 	0
scalar IntersectionExampleScenario.node[18].nic.mac1609_4 	SentPackets 	0
scalar IntersectionExampleScenario.node[18].nic.mac1609_4 	SNIRLostPackets 	0
scalar IntersectionExampleScenario.node[18].nic.mac1609_4 	RXTXLostPackets 	0
scalar IntersectionExampleScenario.node[18].nic.mac1609_4 	TotalLostPackets 	0
scalar IntersectionExampleScenario.node[18].nic.mac1609_4 	DroppedPacketsInMac 	0
scalar IntersectionExampleScenario.node[18].nic.mac1609_4 	TooLittleTime 	0
scalar IntersectionExampleScenario.node[18].nic.mac1609_4 	TimesIntoBackoff 	0
scalar IntersectionExampleScenario.node[18].nic.mac1609_4 	SlotsBackoff 	0
scalar IntersectionExampleScenario.node[18].nic.mac1609_4 	NumInternalContention 	0
scalar IntersectionExampleScenario.node[18].nic.mac1609_4 	totalBusyTime 	0
scalar IntersectionExampleScenario.node[18].veinsmobility 	startTime 	51.75
scalar IntersectionExampleScenario.node[18].veinsmobility 	totalTime 	45.25
scalar IntersectionExampleScenario.node[18].veinsmobility 	stopTime 	97.25
scalar IntersectionExampleScenario.node[18].veinsmobility 	minSpeed 	5.1795387268066
scalar IntersectionExampleScenario.node[18].veinsmobility 	maxSpeed 	15.974687576294
scalar IntersectionExampleScenario.node[18].veinsmobility 	totalDistance 	542.83513414559
scalar IntersectionExampleScenario.node[18].veinsmobility 	totalCO2Emission 	139.96802382503
scalar IntersectionExampleScenario.node[19].appl 	VehicleRemoved 	0
scalar IntersectionExampleScenario.node[19].appl 	ArrivedAtDest 	1
scalar IntersectionExampleScenario.node[19].appl 	IntersectionEnterTime 	52.25
scalar IntersectionExampleScenario.node[19].appl 	IntersectionExitTime 	82.548360668123
scalar IntersectionExampleScenario.node[19].appl 	NumberOfCollisions 	0
scalar IntersectionExampleScenario.node[19].nic.phy80211p 	busyTime 	0
scalar IntersectionExampleScenario.node[19].nic.mac1609_4 	ReceivedUnicastPackets 	0
scalar IntersectionExampleScenario.node[19].nic.mac1609_4 	ReceivedBroadcasts 	0
scalar IntersectionExampleScenario.node[19].nic.mac1609_4 	SentPackets 	0
scalar IntersectionExampleScenario.node[19].nic.mac1609_4 	SNIRLostPackets 	0
scalar IntersectionExampleScenario.node[19].nic.mac1609_4 	RXTXLostPackets 	0
scalar IntersectionExampleScenario.node[19].nic.mac1609_4 	TotalLostPackets 	0
scalar IntersectionExampleScenario.node[19].nic.mac1609_4 	DroppedPacketsInMac 	0
scalar IntersectionExampleScenario.node[19].nic.mac1609_4 	TooLittleTime 	0
scalar IntersectionExampleScenario.node[19].nic.mac1609_4 	TimesIntoBackoff 	0
scalar IntersectionExampleScenario.node[19].nic.mac1609_4 	SlotsBackoff 	0
scalar IntersectionExampleScenario.node[19].nic.mac1609_4 	NumInternalContention 	0
scalar IntersectionExampleScenario.node[19].nic.mac1609_4 	totalBusyTime 	0
scalar IntersectionExampleScenario.node[19].veinsmobility 	startTime 	52.25
scalar IntersectionExampleScenario.node[19].veinsmobility 	totalTime 	46.25
scalar IntersectionExampleScenario.node[19].veinsmobility 	stopTime 	98.75
scalar IntersectionExampleScenario.node[19].veinsmobility 	minSpeed 	5.6500000953674
scalar IntersectionExampleScenario.node[19].veinsmobility 	maxSpeed 	15.5
scalar IntersectionExampleScenario.node[19].veinsmobility 	totalDistance 	576.89833068848
scalar IntersectionExampleScenario.node[19].veinsmobility 	totalCO2Emission 	136.74845141411
scalar IntersectionExampleScenario.node[20].appl 	VehicleRemoved 	0
scalar IntersectionExampleScenario.node[20].appl 	ArrivedAtDest 	1
scalar IntersectionExampleScenario.node[20].appl 	IntersectionEnterTime 	55
scalar IntersectionExampleScenario.node[20].appl 	IntersectionExitTime 	84.87056616004
scalar IntersectionExampleScenario.node[20].appl 	NumberOfCollisions 	0
scalar IntersectionExampleScenario.node[20].nic.phy80211p 	busyTime 	0
scalar IntersectionExampleScenario.node[20].nic.mac1609_4 	ReceivedUnicastPackets 	0
scalar IntersectionExampleScenario.node[20].nic.mac1609_4 	ReceivedBroadcasts 	0
scalar IntersectionExampleScenario.node[20].nic.mac1609_4 	SentPackets 	0
scalar IntersectionExampleScenario.node[20].nic.mac1609_4 	SNIRLostPackets 	0
scalar IntersectionExampleScenario.node[20].nic.mac1609_4 	RXTXLostPackets 	0
scalar IntersectionExampleScenario.node[20].nic.mac1609_4 	TotalLostPackets 	0
scalar IntersectionExampleScenario.node[20].nic.mac1609_4 	DroppedPacketsInMac 	0
scalar IntersectionExampleScenario.node[20].nic.mac1609_4 	TooLittleTime 	0
scalar IntersectionExampleScenario.node[20].nic.mac1609_4 	TimesIntoBackoff 	0
scalar IntersectionExampleScenario.node[20].nic.mac1609_4 	SlotsBackoff 	0
scalar IntersectionExampleScenario.node[20].nic.mac1609_4 	NumInternalContention 	0
scalar IntersectionExampleScenario.node[20].nic.mac1609_4 	totalBusyTime 	0
scalar IntersectionExampleScenario.node[20].veinsmobility 	startTime 	55
scalar IntersectionExampleScenario.node[20].veinsmobility 	totalTime 	46.25
scalar IntersectionExampleScenario.node[20].veinsmobility 	stopTime 	101.5
scalar IntersectionExampleScenario.node[20].veinsmobility 	minSpeed 	5.5716438293457
scalar IntersectionExampleScenario.node[20].veinsmobility 	maxSpeed 	15.875
scalar IntersectionExampleScenario.node[20].veinsmobility 	totalDistance 	568.83464832445
scalar IntersectionExampleScenario.node[20].veinsmobility 	totalCO2Emission 	142.22265793199
scalar IntersectionExampleScenario.node[6].appl 	VehicleRemoved 	0
scalar IntersectionExampleScenario.node[6].appl 	ArrivedAtDest 	1
scalar IntersectionExampleScenario.node[6].appl 	IntersectionEnterTime 	23.25
scalar IntersectionExampleScenario.node[6].appl 	IntersectionExitTime 	89.582125007699
scalar IntersectionExampleScenario.node[6].appl 	NumberOfCollisions 	0
scalar IntersectionExampleScenario.node[6].nic.phy80211p 	busyTime 	0
scalar IntersectionExampleScenario.node[6].nic.mac1609_4 	ReceivedUnicastPackets 	0
scalar IntersectionExampleScenario.node[6].nic.mac1609_4 	ReceivedBroadcasts 	0
scalar IntersectionExampleScenario.node[6].nic.mac1609_4 	SentPackets 	0
scalar IntersectionExampleScenario.node[6].nic.mac1609_4 	SNIRLostPackets 	0
scalar IntersectionExampleScenario.node[6].nic.mac1609_4 	RXTXLostPackets 	0
scalar IntersectionExampleScenario.node[6].nic.mac1609_4 	TotalLostPackets 	0
scalar IntersectionExampleScenario.node[6].nic.mac1609_4 	DroppedPacketsInMac 	0
scalar IntersectionExampleScenario.node[6].nic.mac1609_4 	TooLittleTime 	0
scalar IntersectionExampleScenario.node[6].nic.mac1609_4 	TimesIntoBackoff 	0
scalar IntersectionExampleScenario.node[6].nic.mac1609_4 	SlotsBackoff 	0
scalar IntersectionExampleScenario.node[6].nic.mac1609_4 	NumInternalContention 	0
scalar IntersectionExampleScenario.node[6].nic.mac1609_4 	totalBusyTime 	0
scalar IntersectionExampleScenario.node[6].veinsmobility 	startTime 	23.25
scalar IntersectionExampleScenario.node[6].veinsmobility 	totalTime 	83.25
scalar IntersectionExampleScenario.node[6].veinsmobility 	stopTime 	106.75
scalar IntersectionExampleScenario.node[6].veinsmobility 	minSpeed 	0
scalar IntersectionExampleScenario.node[6].veinsmobility 	maxSpeed 	15.25
scalar IntersectionExampleScenario.node[6].veinsmobility 	totalDistance 	544.46379758269
scalar IntersectionExampleScenario.node[6].veinsmobility 	totalCO2Emission 	171.81099564102
scalar IntersectionExampleScenario.node[10].appl 	VehicleRemoved 	0
scalar IntersectionExampleScenario.node[10].appl 	ArrivedAtDest 	1
scalar IntersectionExampleScenario.node[10].appl 	IntersectionEnterTime 	31.75
scalar IntersectionExampleScenario.node[10].appl 	IntersectionExitTime 	91.545313335431
scalar IntersectionExampleScenario.node[10].appl 	NumberOfCollisions 	0
scalar IntersectionExampleScenario.node[10].nic.phy80211p 	busyTime 	0
scalar IntersectionExampleScenario.node[10].nic.mac1609_4 	ReceivedUnicastPackets 	0
scalar IntersectionExampleScenario.node[10].nic.mac1609_4 	ReceivedBroadcasts 	0
scalar IntersectionExampleScenario.node[10].nic.mac1609_4 	SentPackets 	0
scalar IntersectionExampleScenario.node[10].nic.mac1609_4 	SNIRLostPackets 	0
scalar IntersectionExampleScenario.node[10].nic.mac1609_4 	RXTXLostPackets 	0
scalar IntersectionExampleScenario.node[10].nic.mac1609_4 	TotalLostPackets 	0
scalar IntersectionExampleScenario.node[10].nic.mac1609_4 	DroppedPacketsInMac 	0
scalar IntersectionExampleScenario.node[10].nic.mac1609_4 	TooLittleTime 	0
scalar IntersectionExampleScenario.node[10].nic.mac1609_4 	TimesIntoBackoff 	0
scalar IntersectionExampleScenario.node[10].nic.mac1609_4 	SlotsBackoff 	0
scalar IntersectionExampleScenario.node[10].nic.mac1609_4 	NumInternalContention 	0
scalar IntersectionExampleScenario.node[10].nic.mac1609_4 	totalBusyTime 	0
scalar IntersectionExampleScenario.node[10].veinsmobility 	startTime 	31.75
scalar IntersectionExampleScenario.node[10].veinsmobility 	totalTime 	75.75
scalar IntersectionExampleScenario.node[10].veinsmobility 	stopTime 	107.75
scalar IntersectionExampleScenario.node[10].veinsmobility 	minSpeed 	0
scalar IntersectionExampleScenario.node[10].veinsmobility 	maxSpeed 	16.313446044922
scalar IntersectionExampleScenario.node[10].veinsmobility 	totalDistance 	547.9726103117
scalar IntersectionExampleScenario.node[10].veinsmobility 	totalCO2Emission 	176.40754151384
scalar IntersectionExampleScenario.node[13].appl 	VehicleRemoved 	0
scalar IntersectionExampleScenario.node[13].appl 	ArrivedAtDest 	1
scalar IntersectionExampleScenario.node[13].appl 	IntersectionEnterTime 	39.75
scalar IntersectionExampleScenario.node[13].appl 	IntersectionExitTime 	91.339202814735
scalar IntersectionExampleScenario.node[13].appl 	NumberOfCollisions 	0
scalar IntersectionExampleScenario.node[13].nic.phy80211p 	busyTime 	0
scalar IntersectionExampleScenario.node[13].nic.mac1609_4 	ReceivedUnicastPackets 	0
scalar IntersectionExampleScenario.node[13].nic.mac1609_4 	ReceivedBroadcasts 	0
scalar IntersectionExampleScenario.node[13].nic.mac1609_4 	SentPackets 	0
scalar IntersectionExampleScenario.node[13].nic.mac1609_4 	SNIRLostPackets 	0
scalar IntersectionExampleScenario.node[13].nic.mac1609_4 	RXTXLostPackets 	0
scalar IntersectionExampleScenario.node[13].nic.mac1609_4 	TotalLostPackets 	0
scalar IntersectionExampleScenario.node[13].nic.mac1609_4 	DroppedPacketsInMac 	0
scalar IntersectionExampleScenario.node[13].nic.mac1609_4 	TooLittleTime 	0
scalar IntersectionExampleScenario.node[13].nic.mac1609_4 	TimesIntoBackoff 	0
scalar IntersectionExampleScenario.node[13].nic.mac1609_4 	SlotsBackoff 	0
scalar IntersectionExampleScenario.node[13].nic.mac1609_4 	NumInternalContention 	0
scalar IntersectionExampleScenario.node[13].nic.mac1609_4 	totalBusyTime 	0
scalar IntersectionExampleScenario.node[13].veinsmobility 	startTime 	39.75
scalar IntersectionExampleScenario.node[13].veinsmobility 	totalTime 	68.25
scalar IntersectionExampleScenario.node[13].veinsmobility 	stopTime 	108.25
scalar IntersectionExampleScenario.node[13].veinsmobility 	minSpeed 	0
scalar IntersectionExampleScenario.node[13].veinsmobility 	maxSpeed 	15.375
scalar IntersectionExampleScenario.node[13].veinsmobility 	totalDistance 	552.64063822827
scalar IntersectionExampleScenario.node[13].veinsmobility 	totalCO2Emission 	156.59503051113
scalar IntersectionExampleScenario.node[11].appl 	VehicleRemoved 	0
scalar IntersectionExampleScenario.node[11].appl 	ArrivedAtDest 	1
scalar IntersectionExampleScenario.node[11].appl 	IntersectionEnterTime 	32.25
scalar IntersectionExampleScenario.node[11].appl 	IntersectionExitTime 	93.84191771003
scalar IntersectionExampleScenario.node[11].appl 	NumberOfCollisions 	0
scalar IntersectionExampleScenario.node[11].nic.phy80211p 	busyTime 	0
scalar IntersectionExampleScenario.node[11].nic.mac1609_4 	ReceivedUnicastPackets 	0
scalar IntersectionExampleScenario.node[11].nic.mac1609_4 	ReceivedBroadcasts 	0
scalar IntersectionExampleScenario.node[11].nic.mac1609_4 	SentPackets 	0
scalar IntersectionExampleScenario.node[11].nic.mac1609_4 	SNIRLostPackets 	0
scalar IntersectionExampleScenario.node[11].nic.mac1609_4 	RXTXLostPackets 	0
scalar IntersectionExampleScenario.node[11].nic.mac1609_4 	TotalLostPackets 	0
scalar IntersectionExampleScenario.node[11].nic.mac1609_4 	DroppedPacketsInMac 	0
scalar IntersectionExampleScenario.node[11].nic.mac1609_4 	TooLittleTime 	0
scalar IntersectionExampleScenario.node[11].nic.mac1609_4 	TimesIntoBackoff 	0
scalar IntersectionExampleScenario.node[11].nic.mac1609_4 	SlotsBackoff 	0
scalar IntersectionExampleScenario.node[11].nic.mac1609_4 	NumInternalContention 	0
scalar IntersectionExampleScenario.node[11].nic.mac1609_4 	totalBusyTime 	0
scalar IntersectionExampleScenario.node[11].veinsmobility 	startTime 	32.25
scalar IntersectionExampleScenario.node[11].veinsmobility 	totalTime 	78.25
scalar IntersectionExampleScenario.node[11].veinsmobility 	stopTime 	110.75
scalar IntersectionExampleScenario.node[11].veinsmobility 	minSpeed 	0
scalar IntersectionExampleScenario.node[11].veinsmobility 	maxSpeed 	15.938963890076
scalar IntersectionExampleScenario.node[11].veinsmobility 	totalDistance 	569.84560048097
scalar IntersectionExampleScenario.node[11].veinsmobility 	totalCO2Emission 	176.77458410275
scalar IntersectionExampleScenario.node[22].appl 	VehicleRemoved 	0
scalar IntersectionExampleScenario.node[22].appl 	ArrivedAtDest 	1
scalar IntersectionExampleScenario.node[22].appl 	IntersectionEnterTime 	58.75
scalar IntersectionExampleScenario.node[22].appl 	IntersectionExitTime 	93.866875870561
scalar IntersectionExampleScenario.node[22].appl 	NumberOfCollisions 	0
scalar IntersectionExampleScenario.node[22].nic.phy80211p 	busyTime 	0
scalar IntersectionExampleScenario.node[22].nic.mac1609_4 	ReceivedUnicastPackets 	0
scalar IntersectionExampleScenario.node[22].nic.mac1609_4 	ReceivedBroadcasts 	0
scalar IntersectionExampleScenario.node[22].nic.mac1609_4 	SentPackets 	0
scalar IntersectionExampleScenario.node[22].nic.mac1609_4 	SNIRLostPackets 	0
scalar IntersectionExampleScenario.node[22].nic.mac1609_4 	RXTXLostPackets 	0
scalar IntersectionExampleScenario.node[22].nic.mac1609_4 	TotalLostPackets 	0
scalar IntersectionExampleScenario.node[22].nic.mac1609_4 	DroppedPacketsInMac 	0
scalar IntersectionExampleScenario.node[22].nic.mac1609_4 	TooLittleTime 	0
scalar IntersectionExampleScenario.node[22].nic.mac1609_4 	TimesIntoBackoff 	0
scalar IntersectionExampleScenario.node[22].nic.mac1609_4 	SlotsBackoff 	0
scalar IntersectionExampleScenario.node[22].nic.mac1609_4 	NumInternalContention 	0
scalar IntersectionExampleScenario.node[22].nic.mac1609_4 	totalBusyTime 	0
scalar IntersectionExampleScenario.node[22].veinsmobility 	startTime 	58.75
scalar IntersectionExampleScenario.node[22].veinsmobility 	totalTime 	51.75
scalar IntersectionExampleScenario.node[22].veinsmobility 	stopTime 	110.75
scalar IntersectionExampleScenario.node[22].veinsmobility 	minSpeed 	0.76240873336792
scalar IntersectionExampleScenario.node[22].veinsmobility 	maxSpeed 	15.64999961853
scalar IntersectionExampleScenario.node[22].veinsmobility 	totalDistance 	545.80383121343
scalar IntersectionExampleScenario.node[22].veinsmobility 	totalCO2Emission 	140.28178852487
scalar IntersectionExampleScenario.node[14].appl 	VehicleRemoved 	0
scalar IntersectionExampleScenario.node[14].appl 	ArrivedAtDest 	1
scalar IntersectionExampleScenario.node[14].appl 	IntersectionEnterTime 	40.5
scalar IntersectionExampleScenario.node[14].appl 	IntersectionExitTime 	95.591314444406
scalar IntersectionExampleScenario.node[14].appl 	NumberOfCollisions 	0
scalar IntersectionExampleScenario.node[14].nic.phy80211p 	busyTime 	0
scalar IntersectionExampleScenario.node[14].nic.mac1609_4 	ReceivedUnicastPackets 	0
scalar IntersectionExampleScenario.node[14].nic.mac1609_4 	ReceivedBroadcasts 	0
scalar IntersectionExampleScenario.node[14].nic.mac1609_4 	SentPackets 	0
scalar IntersectionExampleScenario.node[14].nic.mac1609_4 	SNIRLostPackets 	0
scalar IntersectionExampleScenario.node[14].nic.mac1609_4 	RXTXLostPackets 	0
scalar IntersectionExampleScenario.node[14].nic.mac1609_4 	TotalLostPackets 	0
scalar IntersectionExampleScenario.node[14].nic.mac1609_4 	DroppedPacketsInMac 	0
scalar IntersectionExampleScenario.node[14].nic.mac1609_4 	TooLittleTime 	0
scalar IntersectionExampleScenario.node[14].nic.mac1609_4 	TimesIntoBackoff 	0
scalar IntersectionExampleScenario.node[14].nic.mac1609_4 	SlotsBackoff 	0
scalar IntersectionExampleScenario.node[14].nic.mac1609_4 	NumInternalContention 	0
scalar IntersectionExampleScenario.node[14].nic.mac1609_4 	totalBusyTime 	0
scalar IntersectionExampleScenario.node[14].veinsmobility 	startTime 	40.5
scalar IntersectionExampleScenario.node[14].veinsmobility 	totalTime 	71
scalar IntersectionExampleScenario.node[14].veinsmobility 	stopTime 	111.75
scalar IntersectionExampleScenario.node[14].veinsmobility 	minSpeed 	0
scalar IntersectionExampleScenario.node[14].veinsmobility 	maxSpeed 	15.64999961853
scalar IntersectionExampleScenario.node[14].veinsmobility 	totalDistance 	554.40061187744
scalar IntersectionExampleScenario.node[14].veinsmobility 	totalCO2Emission 	162.4358388925
scalar IntersectionExampleScenario.node[17].appl 	VehicleRemoved 	0
scalar IntersectionExampleScenario.node[17].appl 	ArrivedAtDest 	1
scalar IntersectionExampleScenario.node[17].appl 	IntersectionEnterTime 	50.25
scalar IntersectionExampleScenario.node[17].appl 	IntersectionExitTime 	97.583672100998
scalar IntersectionExampleScenario.node[17].appl 	NumberOfCollisions 	0
scalar IntersectionExampleScenario.node[17].nic.phy80211p 	busyTime 	0
scalar IntersectionExampleScenario.node[17].nic.mac1609_4 	ReceivedUnicastPackets 	0
scalar IntersectionExampleScenario.node[17].nic.mac1609_4 	ReceivedBroadcasts 	0
scalar IntersectionExampleScenario.node[17].nic.mac1609_4 	SentPackets 	0
scalar IntersectionExampleScenario.node[17].nic.mac1609_4 	SNIRLostPackets 	0
scalar IntersectionExampleScenario.node[17].nic.mac1609_4 	RXTXLostPackets 	0
scalar IntersectionExampleScenario.node[17].nic.mac1609_4 	TotalLostPackets 	0
scalar IntersectionExampleScenario.node[17].nic.mac1609_4 	DroppedPacketsInMac 	0
scalar IntersectionExampleScenario.node[17].nic.mac1609_4 	TooLittleTime 	0
scalar IntersectionExampleScenario.node[17].nic.mac1609_4 	TimesIntoBackoff 	0
scalar IntersectionExampleScenario.node[17].nic.mac1609_4 	SlotsBackoff 	0
scalar IntersectionExampleScenario.node[17].nic.mac1609_4 	NumInternalContention 	0
scalar IntersectionExampleScenario.node[17].nic.mac1609_4 	totalBusyTime 	0
scalar IntersectionExampleScenario.node[17].veinsmobility 	startTime 	50.25
scalar IntersectionExampleScenario.node[17].veinsmobility 	totalTime 	64.25
scalar IntersectionExampleScenario.node[17].veinsmobility 	stopTime 	114.75
scalar IntersectionExampleScenario.node[17].veinsmobility 	minSpeed 	0
scalar IntersectionExampleScenario.node[17].veinsmobility 	maxSpeed 	15.25
scalar IntersectionExampleScenario.node[17].veinsmobility 	totalDistance 	543.83589669524
scalar IntersectionExampleScenario.node[17].veinsmobility 	totalCO2Emission 	150.9972331776
scalar IntersectionExampleScenario.node[21].appl 	VehicleRemoved 	0
scalar IntersectionExampleScenario.node[21].appl 	ArrivedAtDest 	1
scalar IntersectionExampleScenario.node[21].appl 	IntersectionEnterTime 	57.5
scalar IntersectionExampleScenario.node[21].appl 	IntersectionExitTime 	99.761576354329
scalar IntersectionExampleScenario.node[21].appl 	NumberOfCollisions 	0
scalar IntersectionExampleScenario.node[21].nic.phy80211p 	busyTime 	0
scalar IntersectionExampleScenario.node[21].nic.mac1609_4 	ReceivedUnicastPackets 	0
scalar IntersectionExampleScenario.node[21].nic.mac1609_4 	ReceivedBroadcasts 	0
scalar IntersectionExampleScenario.node[21].nic.mac1609_4 	SentPackets 	0
scalar IntersectionExampleScenario.node[21].nic.mac1609_4 	SNIRLostPackets 	0
scalar IntersectionExampleScenario.node[21].nic.mac1609_4 	RXTXLostPackets 	0
scalar IntersectionExampleScenario.node[21].nic.mac1609_4 	TotalLostPackets 	0
scalar IntersectionExampleScenario.node[21].nic.mac1609_4 	DroppedPacketsInMac 	0
scalar IntersectionExampleScenario.node[21].nic.mac1609_4 	TooLittleTime 	0
scalar IntersectionExampleScenario.node[21].nic.mac1609_4 	TimesIntoBackoff 	0
scalar IntersectionExampleScenario.node[21].nic.mac1609_4 	SlotsBackoff 	0
scalar IntersectionExampleScenario.node[21].nic.mac1609_4 	NumInternalContention 	0
scalar IntersectionExampleScenario.node[21].nic.mac1609_4 	totalBusyTime 	0
scalar IntersectionExampleScenario.node[21].veinsmobility 	startTime 	57.5
scalar IntersectionExampleScenario.node[21].veinsmobility 	totalTime 	58.75
scalar IntersectionExampleScenario.node[21].veinsmobility 	stopTime 	116.5
scalar IntersectionExampleScenario.node[21].veinsmobility 	minSpeed 	0
scalar IntersectionExampleScenario.node[21].veinsmobility 	maxSpeed 	15.658527374268
scalar IntersectionExampleScenario.node[21].veinsmobility 	totalDistance 	546.92290490089
scalar IntersectionExampleScenario.node[21].veinsmobility 	totalCO2Emission 	148.36076268045
scalar IntersectionExampleScenario.node[23].appl 	VehicleRemoved 	0
scalar IntersectionExampleScenario.node[23].appl 	ArrivedAtDest 	1
scalar IntersectionExampleScenario.node[23].appl 	IntersectionEnterTime 	59.5
scalar IntersectionExampleScenario.node[23].appl 	IntersectionExitTime 	101.30489462701
scalar IntersectionExampleScenario.node[23].appl 	NumberOfCollisions 	0
scalar IntersectionExampleScenario.node[23].nic.phy80211p 	busyTime 	0
scalar IntersectionExampleScenario.node[23].nic.mac1609_4 	ReceivedUnicastPackets 	0
scalar IntersectionExampleScenario.node[23].nic.mac1609_4 	ReceivedBroadcasts 	0
scalar IntersectionExampleScenario.node[23].nic.mac1609_4 	SentPackets 	0
scalar IntersectionExampleScenario.node[23].nic.mac1609_4 	SNIRLostPackets 	0
scalar IntersectionExampleScenario.node[23].nic.mac1609_4 	RXTXLostPackets 	0
scalar IntersectionExampleScenario.node[23].nic.mac1609_4 	TotalLostPackets 	0
scalar IntersectionExampleScenario.node[23].nic.mac1609_4 	DroppedPacketsInMac 	0
scalar IntersectionExampleScenario.node[23].nic.mac1609_4 	TooLittleTime 	0
scalar IntersectionExampleScenario.node[23].nic.mac1609_4 	TimesIntoBackoff 	0
scalar IntersectionExampleScenario.node[23].nic.mac1609_4 	SlotsBackoff 	0
scalar IntersectionExampleScenario.node[23].nic.mac1609_4 	NumInternalContention 	0
scalar IntersectionExampleScenario.node[23].nic.mac1609_4 	totalBusyTime 	0
scalar IntersectionExampleScenario.node[23].veinsmobility 	startTime 	59.5
scalar IntersectionExampleScenario.node[23].veinsmobility 	totalTime 	57.25
scalar IntersectionExampleScenario.node[23].veinsmobility 	stopTime 	117
scalar IntersectionExampleScenario.node[23].veinsmobility 	minSpeed 	0
scalar IntersectionExampleScenario.node[23].veinsmobility 	maxSpeed 	15.721607208252
scalar IntersectionExampleScenario.node[23].veinsmobility 	totalDistance 	570.00019073486
scalar IntersectionExampleScenario.node[23].veinsmobility 	totalCO2Emission 	152.48310029274
scalar IntersectionExampleScenario.node[25].appl 	VehicleRemoved 	0
scalar IntersectionExampleScenario.node[25].appl 	ArrivedAtDest 	1
scalar IntersectionExampleScenario.node[25].appl 	IntersectionEnterTime 	66.25
scalar IntersectionExampleScenario.node[25].appl 	IntersectionExitTime 	103.51033315167
scalar IntersectionExampleScenario.node[25].appl 	NumberOfCollisions 	0
scalar IntersectionExampleScenario.node[25].nic.phy80211p 	busyTime 	0
scalar IntersectionExampleScenario.node[25].nic.mac1609_4 	ReceivedUnicastPackets 	0
scalar IntersectionExampleScenario.node[25].nic.mac1609_4 	ReceivedBroadcasts 	0
scalar IntersectionExampleScenario.node[25].nic.mac1609_4 	SentPackets 	0
scalar IntersectionExampleScenario.node[25].nic.mac1609_4 	SNIRLostPackets 	0
scalar IntersectionExampleScenario.node[25].nic.mac1609_4 	RXTXLostPackets 	0
scalar IntersectionExampleScenario.node[25].nic.mac1609_4 	TotalLostPackets 	0
scalar IntersectionExampleScenario.node[25].nic.mac1609_4 	DroppedPacketsInMac 	0
scalar IntersectionExampleScenario.node[25].nic.mac1609_4 	TooLittleTime 	0
scalar IntersectionExampleScenario.node[25].nic.mac1609_4 	TimesIntoBackoff 	0
scalar IntersectionExampleScenario.node[25].nic.mac1609_4 	SlotsBackoff 	0
scalar IntersectionExampleScenario.node[25].nic.mac1609_4 	NumInternalContention 	0
scalar IntersectionExampleScenario.node[25].nic.mac1609_4 	totalBusyTime 	0
scalar IntersectionExampleScenario.node[25].veinsmobility 	startTime 	66.25
scalar IntersectionExampleScenario.node[25].veinsmobility 	totalTime 	53.5
scalar IntersectionExampleScenario.node[25].veinsmobility 	stopTime 	120
scalar IntersectionExampleScenario.node[25].veinsmobility 	minSpeed 	0
scalar IntersectionExampleScenario.node[25].veinsmobility 	maxSpeed 	15.988383293152
scalar IntersectionExampleScenario.node[25].veinsmobility 	totalDistance 	545.86629413822
scalar IntersectionExampleScenario.node[25].veinsmobility 	totalCO2Emission 	150.83158113399
scalar IntersectionExampleScenario.node[30].appl 	VehicleRemoved 	0
scalar IntersectionExampleScenario.node[30].appl 	ArrivedAtDest 	1
scalar IntersectionExampleScenario.node[30].appl 	IntersectionEnterTime 	82.5
scalar IntersectionExampleScenario.node[30].appl 	IntersectionExitTime 	105.8448687265
scalar IntersectionExampleScenario.node[30].appl 	NumberOfCollisions 	0
scalar IntersectionExampleScenario.node[30].nic.phy80211p 	busyTime 	0
scalar IntersectionExampleScenario.node[30].nic.mac1609_4 	ReceivedUnicastPackets 	0
scalar IntersectionExampleScenario.node[30].nic.mac1609_4 	ReceivedBroadcasts 	0
scalar IntersectionExampleScenario.node[30].nic.mac1609_4 	SentPackets 	0
scalar IntersectionExampleScenario.node[30].nic.mac1609_4 	SNIRLostPackets 	0
scalar IntersectionExampleScenario.node[30].nic.mac1609_4 	RXTXLostPackets 	0
scalar IntersectionExampleScenario.node[30].nic.mac1609_4 	TotalLostPackets 	0
scalar IntersectionExampleScenario.node[30].nic.mac1609_4 	DroppedPacketsInMac 	0
scalar IntersectionExampleScenario.node[30].nic.mac1609_4 	TooLittleTime 	0
scalar IntersectionExampleScenario.node[30].nic.mac1609_4 	TimesIntoBackoff 	0
scalar IntersectionExampleScenario.node[30].nic.mac1609_4 	SlotsBackoff 	0
scalar IntersectionExampleScenario.node[30].nic.mac1609_4 	NumInternalContention 	0
scalar IntersectionExampleScenario.node[30].nic.mac1609_4 	totalBusyTime 	0
scalar IntersectionExampleScenario.node[30].veinsmobility 	startTime 	82.5
scalar IntersectionExampleScenario.node[30].veinsmobility 	totalTime 	39.75
scalar IntersectionExampleScenario.node[30].veinsmobility 	stopTime 	122.5
scalar IntersectionExampleScenario.node[30].veinsmobility 	minSpeed 	5.6500000953674
scalar IntersectionExampleScenario.node[30].veinsmobility 	maxSpeed 	15.875
scalar IntersectionExampleScenario.node[30].veinsmobility 	totalDistance 	543.81745834624
scalar IntersectionExampleScenario.node[30].veinsmobility 	totalCO2Emission 	127.79058875965
scalar IntersectionExampleScenario.node[33].appl 	VehicleRemoved 	0
scalar IntersectionExampleScenario.node[33].appl 	ArrivedAtDest 	1
scalar IntersectionExampleScenario.node[33].appl 	IntersectionEnterTime 	93.75
scalar IntersectionExampleScenario.node[33].appl 	IntersectionExitTime 	116.80451495229
scalar IntersectionExampleScenario.node[33].appl 	NumberOfCollisions 	0
scalar IntersectionExampleScenario.node[33].nic.phy80211p 	busyTime 	0
scalar IntersectionExampleScenario.node[33].nic.mac1609_4 	ReceivedUnicastPackets 	0
scalar IntersectionExampleScenario.node[33].nic.mac1609_4 	ReceivedBroadcasts 	0
scalar IntersectionExampleScenario.node[33].nic.mac1609_4 	SentPackets 	0
scalar IntersectionExampleScenario.node[33].nic.mac1609_4 	SNIRLostPackets 	0
scalar IntersectionExampleScenario.node[33].nic.mac1609_4 	RXTXLostPackets 	0
scalar IntersectionExampleScenario.node[33].nic.mac1609_4 	TotalLostPackets 	0
scalar IntersectionExampleScenario.node[33].nic.mac1609_4 	DroppedPacketsInMac 	0
scalar IntersectionExampleScenario.node[33].nic.mac1609_4 	TooLittleTime 	0
scalar IntersectionExampleScenario.node[33].nic.mac1609_4 	TimesIntoBackoff 	0
scalar IntersectionExampleScenario.node[33].nic.mac1609_4 	SlotsBackoff 	0
scalar IntersectionExampleScenario.node[33].nic.mac1609_4 	NumInternalContention 	0
scalar IntersectionExampleScenario.node[33].nic.mac1609_4 	totalBusyTime 	0
scalar IntersectionExampleScenario.node[33].veinsmobility 	startTime 	93.75
scalar IntersectionExampleScenario.node[33].veinsmobility 	totalTime 	39.25
scalar IntersectionExampleScenario.node[33].veinsmobility 	stopTime 	133.25
scalar IntersectionExampleScenario.node[33].veinsmobility 	minSpeed 	5.6500000953674
scalar IntersectionExampleScenario.node[33].veinsmobility 	maxSpeed 	15.5
scalar IntersectionExampleScenario.node[33].veinsmobility 	totalDistance 	553.91957092285
scalar IntersectionExampleScenario.node[33].veinsmobility 	totalCO2Emission 	116.53995530166
scalar IntersectionExampleScenario.node[35].appl 	VehicleRemoved 	0
scalar IntersectionExampleScenario.node[35].appl 	ArrivedAtDest 	1
scalar IntersectionExampleScenario.node[35].appl 	IntersectionEnterTime 	96.5
scalar IntersectionExampleScenario.node[35].appl 	IntersectionExitTime 	120.85775991576
scalar IntersectionExampleScenario.node[35].appl 	NumberOfCollisions 	0
scalar IntersectionExampleScenario.node[35].nic.phy80211p 	busyTime 	0
scalar IntersectionExampleScenario.node[35].nic.mac1609_4 	ReceivedUnicastPackets 	0
scalar IntersectionExampleScenario.node[35].nic.mac1609_4 	ReceivedBroadcasts 	0
scalar IntersectionExampleScenario.node[35].nic.mac1609_4 	SentPackets 	0
scalar IntersectionExampleScenario.node[35].nic.mac1609_4 	SNIRLostPackets 	0
scalar IntersectionExampleScenario.node[35].nic.mac1609_4 	RXTXLostPackets 	0
scalar IntersectionExampleScenario.node[35].nic.mac1609_4 	TotalLostPackets 	0
scalar IntersectionExampleScenario.node[35].nic.mac1609_4 	DroppedPacketsInMac 	0
scalar IntersectionExampleScenario.node[35].nic.mac1609_4 	TooLittleTime 	0
scalar IntersectionExampleScenario.node[35].nic.mac1609_4 	TimesIntoBackoff 	0
scalar IntersectionExampleScenario.node[35].nic.mac1609_4 	SlotsBackoff 	0
scalar IntersectionExampleScenario.node[35].nic.mac1609_4 	NumInternalContention 	0
scalar IntersectionExampleScenario.node[35].nic.mac1609_4 	totalBusyTime 	0
scalar IntersectionExampleScenario.node[35].veinsmobility 	startTime 	96.5
scalar IntersectionExampleScenario.node[35].veinsmobility 	totalTime 	40.75
scalar IntersectionExampleScenario.node[35].veinsmobility 	stopTime 	137.5
scalar IntersectionExampleScenario.node[35].veinsmobility 	minSpeed 	5.6500000953674
scalar IntersectionExampleScenario.node[35].veinsmobility 	maxSpeed 	15.875
scalar IntersectionExampleScenario.node[35].veinsmobility 	totalDistance 	560.58606776758
scalar IntersectionExampleScenario.node[35].veinsmobility 	totalCO2Emission 	130.47239626098
scalar IntersectionExampleScenario.node[24].appl 	VehicleRemoved 	0
scalar IntersectionExampleScenario.node[24].appl 	ArrivedAtDest 	1
scalar IntersectionExampleScenario.node[24].appl 	IntersectionEnterTime 	63
scalar IntersectionExampleScenario.node[24].appl 	IntersectionExitTime 	124.58144825703
scalar IntersectionExampleScenario.node[24].appl 	NumberOfCollisions 	0
scalar IntersectionExampleScenario.node[24].nic.phy80211p 	busyTime 	0
scalar IntersectionExampleScenario.node[24].nic.mac1609_4 	ReceivedUnicastPackets 	0
scalar IntersectionExampleScenario.node[24].nic.mac1609_4 	ReceivedBroadcasts 	0
scalar IntersectionExampleScenario.node[24].nic.mac1609_4 	SentPackets 	0
scalar IntersectionExampleScenario.node[24].nic.mac1609_4 	SNIRLostPackets 	0
scalar IntersectionExampleScenario.node[24].nic.mac1609_4 	RXTXLostPackets 	0
scalar IntersectionExampleScenario.node[24].nic.mac1609_4 	TotalLostPackets 	0
scalar IntersectionExampleScenario.node[24].nic.mac1609_4 	DroppedPacketsInMac 	0
scalar IntersectionExampleScenario.node[24].nic.mac1609_4 	TooLittleTime 	0
scalar IntersectionExampleScenario.node[24].nic.mac1609_4 	TimesIntoBackoff 	0
scalar IntersectionExampleScenario.node[24].nic.mac1609_4 	SlotsBackoff 	0
scalar IntersectionExampleScenario.node[24].nic.mac1609_4 	NumInternalContention 	0
scalar IntersectionExampleScenario.node[24].nic.mac1609_4 	totalBusyTime 	0
scalar IntersectionExampleScenario.node[24].veinsmobility 	startTime 	63
scalar IntersectionExampleScenario.node[24].veinsmobility 	totalTime 	78.25
scalar IntersectionExampleScenario.node[24].veinsmobility 	stopTime 	141.5
scalar IntersectionExampleScenario.node[24].veinsmobility 	minSpeed 	0
scalar IntersectionExampleScenario.node[24].veinsmobility 	maxSpeed 	15.875
scalar IntersectionExampleScenario.node[24].veinsmobility 	totalDistance 	546.65286923796
scalar IntersectionExampleScenario.node[24].veinsmobility 	totalCO2Emission 	170.81173568812
scalar IntersectionExampleScenario.node[26].appl 	VehicleRemoved 	0
scalar IntersectionExampleScenario.node[26].appl 	ArrivedAtDest 	1
scalar IntersectionExampleScenario.node[26].appl 	IntersectionEnterTime 	74.25
scalar IntersectionExampleScenario.node[26].appl 	IntersectionExitTime 	126.27039188062
scalar IntersectionExampleScenario.node[26].appl 	NumberOfCollisions 	0
scalar IntersectionExampleScenario.node[26].nic.phy80211p 	busyTime 	0
scalar IntersectionExampleScenario.node[26].nic.mac1609_4 	ReceivedUnicastPackets 	0
scalar IntersectionExampleScenario.node[26].nic.mac1609_4 	ReceivedBroadcasts 	0
scalar IntersectionExampleScenario.node[26].nic.mac1609_4 	SentPackets 	0
scalar IntersectionExampleScenario.node[26].nic.mac1609_4 	SNIRLostPackets 	0
scalar IntersectionExampleScenario.node[26].nic.mac1609_4 	RXTXLostPackets 	0
scalar IntersectionExampleScenario.node[26].nic.mac1609_4 	TotalLostPackets 	0
scalar IntersectionExampleScenario.node[26].nic.mac1609_4 	DroppedPacketsInMac 	0
scalar IntersectionExampleScenario.node[26].nic.mac1609_4 	TooLittleTime 	0
scalar IntersectionExampleScenario.node[26].nic.mac1609_4 	TimesIntoBackoff 	0
scalar IntersectionExampleScenario.node[26].nic.mac1609_4 	SlotsBackoff 	0
scalar IntersectionExampleScenario.node[26].nic.mac1609_4 	NumInternalContention 	0
scalar IntersectionExampleScenario.node[26].nic.mac1609_4 	totalBusyTime 	0
scalar IntersectionExampleScenario.node[26].veinsmobility 	startTime 	74.25
scalar IntersectionExampleScenario.node[26].veinsmobility 	totalTime 	68.25
scalar IntersectionExampleScenario.node[26].veinsmobility 	stopTime 	142.75
scalar IntersectionExampleScenario.node[26].veinsmobility 	minSpeed 	0
scalar IntersectionExampleScenario.node[26].veinsmobility 	maxSpeed 	15.5
scalar IntersectionExampleScenario.node[26].veinsmobility 	totalDistance 	551.91905212402
scalar IntersectionExampleScenario.node[26].veinsmobility 	totalCO2Emission 	156.42997867709
scalar IntersectionExampleScenario.node[28].appl 	VehicleRemoved 	0
scalar IntersectionExampleScenario.node[28].appl 	ArrivedAtDest 	1
scalar IntersectionExampleScenario.node[28].appl 	IntersectionEnterTime 	81.25
scalar IntersectionExampleScenario.node[28].appl 	IntersectionExitTime 	128.84253943339
scalar IntersectionExampleScenario.node[28].appl 	NumberOfCollisions 	0
scalar IntersectionExampleScenario.node[28].nic.phy80211p 	busyTime 	0
scalar IntersectionExampleScenario.node[28].nic.mac1609_4 	ReceivedUnicastPackets 	0
scalar IntersectionExampleScenario.node[28].nic.mac1609_4 	ReceivedBroadcasts 	0
scalar IntersectionExampleScenario.node[28].nic.mac1609_4 	SentPackets 	0
scalar IntersectionExampleScenario.node[28].nic.mac1609_4 	SNIRLostPackets 	0
scalar IntersectionExampleScenario.node[28].nic.mac1609_4 	RXTXLostPackets 	0
scalar IntersectionExampleScenario.node[28].nic.mac1609_4 	TotalLostPackets 	0
scalar IntersectionExampleScenario.node[28].nic.mac1609_4 	DroppedPacketsInMac 	0
scalar IntersectionExampleScenario.node[28].nic.mac1609_4 	TooLittleTime 	0
scalar IntersectionExampleScenario.node[28].nic.mac1609_4 	TimesIntoBackoff 	0
scalar IntersectionExampleScenario.node[28].nic.mac1609_4 	SlotsBackoff 	0
scalar IntersectionExampleScenario.node[28].nic.mac1609_4 	NumInternalContention 	0
scalar IntersectionExampleScenario.node[28].nic.mac1609_4 	totalBusyTime 	0
scalar IntersectionExampleScenario.node[28].veinsmobility 	startTime 	81.25
scalar IntersectionExampleScenario.node[28].veinsmobility 	totalTime 	64.25
scalar IntersectionExampleScenario.node[28].veinsmobility 	stopTime 	145.75
scalar IntersectionExampleScenario.node[28].veinsmobility 	minSpeed 	0
scalar IntersectionExampleScenario.node[28].veinsmobility 	maxSpeed 	15.02499961853
scalar IntersectionExampleScenario.node[28].veinsmobility 	totalDistance 	554.22381591797
scalar IntersectionExampleScenario.node[28].veinsmobility 	totalCO2Emission 	149.80566944312
scalar IntersectionExampleScenario.node[29].appl 	VehicleRemoved 	0
scalar IntersectionExampleScenario.node[29].appl 	ArrivedAtDest 	1
scalar IntersectionExampleScenario.node[29].appl 	IntersectionEnterTime 	82
scalar IntersectionExampleScenario.node[29].appl 	IntersectionExitTime 	131.36315511053
scalar IntersectionExampleScenario.node[29].appl 	NumberOfCollisions 	0
scalar IntersectionExampleScenario.node[29].nic.phy80211p 	busyTime 	0
scalar IntersectionExampleScenario.node[29].nic.mac1609_4 	ReceivedUnicastPackets 	0
scalar IntersectionExampleScenario.node[29].nic.mac1609_4 	ReceivedBroadcasts 	0
scalar IntersectionExampleScenario.node[29].nic.mac1609_4 	SentPackets 	0
scalar IntersectionExampleScenario.node[29].nic.mac1609_4 	SNIRLostPackets 	0
scalar IntersectionExampleScenario.node[29].nic.mac1609_4 	RXTXLostPackets 	0
scalar IntersectionExampleScenario.node[29].nic.mac1609_4 	TotalLostPackets 	0
scalar IntersectionExampleScenario.node[29].nic.mac1609_4 	DroppedPacketsInMac 	0
scalar IntersectionExampleScenario.node[29].nic.mac1609_4 	TooLittleTime 	0
scalar IntersectionExampleScenario.node[29].nic.mac1609_4 	TimesIntoBackoff 	0
scalar IntersectionExampleScenario.node[29].nic.mac1609_4 	SlotsBackoff 	0
scalar IntersectionExampleScenario.node[29].nic.mac1609_4 	NumInternalContention 	0
scalar IntersectionExampleScenario.node[29].nic.mac1609_4 	totalBusyTime 	0
scalar IntersectionExampleScenario.node[29].veinsmobility 	startTime 	82
scalar IntersectionExampleScenario.node[29].veinsmobility 	totalTime 	66.5
scalar IntersectionExampleScenario.node[29].veinsmobility 	stopTime 	148.75
scalar IntersectionExampleScenario.node[29].veinsmobility 	minSpeed 	0
scalar IntersectionExampleScenario.node[29].veinsmobility 	maxSpeed 	14.970809936523
scalar IntersectionExampleScenario.node[29].veinsmobility 	totalDistance 	566.38181628557
scalar IntersectionExampleScenario.node[29].veinsmobility 	totalCO2Emission 	159.85685238942
scalar IntersectionExampleScenario.node[31].appl 	VehicleRemoved 	0
scalar IntersectionExampleScenario.node[31].appl 	ArrivedAtDest 	1
scalar IntersectionExampleScenario.node[31].appl 	IntersectionEnterTime 	91.75
scalar IntersectionExampleScenario.node[31].appl 	IntersectionExitTime 	133.86257387855
scalar IntersectionExampleScenario.node[31].appl 	NumberOfCollisions 	0
scalar IntersectionExampleScenario.node[31].nic.phy80211p 	busyTime 	0
scalar IntersectionExampleScenario.node[31].nic.mac1609_4 	ReceivedUnicastPackets 	0
scalar IntersectionExampleScenario.node[31].nic.mac1609_4 	ReceivedBroadcasts 	0
scalar IntersectionExampleScenario.node[31].nic.mac1609_4 	SentPackets 	0
scalar IntersectionExampleScenario.node[31].nic.mac1609_4 	SNIRLostPackets 	0
scalar IntersectionExampleScenario.node[31].nic.mac1609_4 	RXTXLostPackets 	0
scalar IntersectionExampleScenario.node[31].nic.mac1609_4 	TotalLostPackets 	0
scalar IntersectionExampleScenario.node[31].nic.mac1609_4 	DroppedPacketsInMac 	0
scalar IntersectionExampleScenario.node[31].nic.mac1609_4 	TooLittleTime 	0
scalar IntersectionExampleScenario.node[31].nic.mac1609_4 	TimesIntoBackoff 	0
scalar IntersectionExampleScenario.node[31].nic.mac1609_4 	SlotsBackoff 	0
scalar IntersectionExampleScenario.node[31].nic.mac1609_4 	NumInternalContention 	0
scalar IntersectionExampleScenario.node[31].nic.mac1609_4 	totalBusyTime 	0
scalar IntersectionExampleScenario.node[31].veinsmobility 	startTime 	91.75
scalar IntersectionExampleScenario.node[31].veinsmobility 	totalTime 	58.5
scalar IntersectionExampleScenario.node[31].veinsmobility 	stopTime 	150.5
scalar IntersectionExampleScenario.node[31].veinsmobility 	minSpeed 	0
scalar IntersectionExampleScenario.node[31].veinsmobility 	maxSpeed 	16.27499961853
scalar IntersectionExampleScenario.node[31].veinsmobility 	totalDistance 	545.53628412058
scalar IntersectionExampleScenario.node[31].veinsmobility 	totalCO2Emission 	158.32479375089
scalar IntersectionExampleScenario.node[32].appl 	VehicleRemoved 	0
scalar IntersectionExampleScenario.node[32].appl 	ArrivedAtDest 	1
scalar IntersectionExampleScenario.node[32].appl 	IntersectionEnterTime 	92.5
scalar IntersectionExampleScenario.node[32].appl 	IntersectionExitTime 	135.80174869942
scalar IntersectionExampleScenario.node[32].appl 	NumberOfCollisions 	0
scalar IntersectionExampleScenario.node[32].nic.phy80211p 	busyTime 	0
scalar IntersectionExampleScenario.node[32].nic.mac1609_4 	ReceivedUnicastPackets 	0
scalar IntersectionExampleScenario.node[32].nic.mac1609_4 	ReceivedBroadcasts 	0
scalar IntersectionExampleScenario.node[32].nic.mac1609_4 	SentPackets 	0
scalar IntersectionExampleScenario.node[32].nic.mac1609_4 	SNIRLostPackets 	0
scalar IntersectionExampleScenario.node[32].nic.mac1609_4 	RXTXLostPackets 	0
scalar IntersectionExampleScenario.node[32].nic.mac1609_4 	TotalLostPackets 	0
scalar IntersectionExampleScenario.node[32].nic.mac1609_4 	DroppedPacketsInMac 	0
scalar IntersectionExampleScenario.node[32].nic.mac1609_4 	TooLittleTime 	0
scalar IntersectionExampleScenario.node[32].nic.mac1609_4 	TimesIntoBackoff 	0
scalar IntersectionExampleScenario.node[32].nic.mac1609_4 	SlotsBackoff 	0
scalar IntersectionExampleScenario.node[32].nic.mac1609_4 	NumInternalContention 	0
scalar IntersectionExampleScenario.node[32].nic.mac1609_4 	totalBusyTime 	0
scalar IntersectionExampleScenario.node[32].veinsmobility 	startTime 	92.5
scalar IntersectionExampleScenario.node[32].veinsmobility 	totalTime 	59
scalar IntersectionExampleScenario.node[32].veinsmobility 	stopTime 	151.75
scalar IntersectionExampleScenario.node[32].veinsmobility 	minSpeed 	0
scalar IntersectionExampleScenario.node[32].veinsmobility 	maxSpeed 	16
scalar IntersectionExampleScenario.node[32].veinsmobility 	totalDistance 	572.90152180835
scalar IntersectionExampleScenario.node[32].veinsmobility 	totalCO2Emission 	165.72473440678
scalar IntersectionExampleScenario.node[34].appl 	VehicleRemoved 	0
scalar IntersectionExampleScenario.node[34].appl 	ArrivedAtDest 	1
scalar IntersectionExampleScenario.node[34].appl 	IntersectionEnterTime 	94
scalar IntersectionExampleScenario.node[34].appl 	IntersectionExitTime 	138.32286083186
scalar IntersectionExampleScenario.node[34].appl 	NumberOfCollisions 	0
scalar IntersectionExampleScenario.node[34].nic.phy80211p 	busyTime 	0
scalar IntersectionExampleScenario.node[34].nic.mac1609_4 	ReceivedUnicastPackets 	0
scalar IntersectionExampleScenario.node[34].nic.mac1609_4 	ReceivedBroadcasts 	0
scalar IntersectionExampleScenario.node[34].nic.mac1609_4 	SentPackets 	0
scalar IntersectionExampleScenario.node[34].nic.mac1609_4 	SNIRLostPackets 	0
scalar IntersectionExampleScenario.node[34].nic.mac1609_4 	RXTXLostPackets 	0
scalar IntersectionExampleScenario.node[34].nic.mac1609_4 	TotalLostPackets 	0
scalar IntersectionExampleScenario.node[34].nic.mac1609_4 	DroppedPacketsInMac 	0
scalar IntersectionExampleScenario.node[34].nic.mac1609_4 	TooLittleTime 	0
scalar IntersectionExampleScenario.node[34].nic.mac1609_4 	TimesIntoBackoff 	0
scalar IntersectionExampleScenario.node[34].nic.mac1609_4 	SlotsBackoff 	0
scalar IntersectionExampleScenario.node[34].nic.mac1609_4 	NumInternalContention 	0
scalar IntersectionExampleScenario.node[34].nic.mac1609_4 	totalBusyTime 	0
scalar IntersectionExampleScenario.node[34].veinsmobility 	startTime 	94
scalar IntersectionExampleScenario.node[34].veinsmobility 	totalTime 	61
scalar IntersectionExampleScenario.node[34].veinsmobility 	stopTime 	155.25
scalar IntersectionExampleScenario.node[34].veinsmobility 	minSpeed 	0
scalar IntersectionExampleScenario.node[34].veinsmobility 	maxSpeed 	15.457405090332
scalar IntersectionExampleScenario.node[34].veinsmobility 	totalDistance 	579.43777421624
scalar IntersectionExampleScenario.node[34].veinsmobility 	totalCO2Emission 	161.58385126799
scalar IntersectionExampleScenario.node[36].appl 	VehicleRemoved 	0
scalar IntersectionExampleScenario.node[36].appl 	ArrivedAtDest 	1
scalar IntersectionExampleScenario.node[36].appl 	IntersectionEnterTime 	102.25
scalar IntersectionExampleScenario.node[36].appl 	IntersectionExitTime 	140.54075926074
scalar IntersectionExampleScenario.node[36].appl 	NumberOfCollisions 	0
scalar IntersectionExampleScenario.node[36].nic.phy80211p 	busyTime 	0
scalar IntersectionExampleScenario.node[36].nic.mac1609_4 	ReceivedUnicastPackets 	0
scalar IntersectionExampleScenario.node[36].nic.mac1609_4 	ReceivedBroadcasts 	0
scalar IntersectionExampleScenario.node[36].nic.mac1609_4 	SentPackets 	0
scalar IntersectionExampleScenario.node[36].nic.mac1609_4 	SNIRLostPackets 	0
scalar IntersectionExampleScenario.node[36].nic.mac1609_4 	RXTXLostPackets 	0
scalar IntersectionExampleScenario.node[36].nic.mac1609_4 	TotalLostPackets 	0
scalar IntersectionExampleScenario.node[36].nic.mac1609_4 	DroppedPacketsInMac 	0
scalar IntersectionExampleScenario.node[36].nic.mac1609_4 	TooLittleTime 	0
scalar IntersectionExampleScenario.node[36].nic.mac1609_4 	TimesIntoBackoff 	0
scalar IntersectionExampleScenario.node[36].nic.mac1609_4 	SlotsBackoff 	0
scalar IntersectionExampleScenario.node[36].nic.mac1609_4 	NumInternalContention 	0
scalar IntersectionExampleScenario.node[36].nic.mac1609_4 	totalBusyTime 	0
scalar IntersectionExampleScenario.node[36].veinsmobility 	startTime 	102.25
scalar IntersectionExampleScenario.node[36].veinsmobility 	totalTime 	54.5
scalar IntersectionExampleScenario.node[36].veinsmobility 	stopTime 	157
scalar IntersectionExampleScenario.node[36].veinsmobility 	minSpeed 	0
scalar IntersectionExampleScenario.node[36].veinsmobility 	maxSpeed 	16.01181602478
scalar IntersectionExampleScenario.node[36].veinsmobility 	totalDistance 	545.9111329771
scalar IntersectionExampleScenario.node[36].veinsmobility 	totalCO2Emission 	154.25730982153
scalar IntersectionExampleScenario.node[39].appl 	VehicleRemoved 	0
scalar IntersectionExampleScenario.node[39].appl 	ArrivedAtDest 	1
scalar IntersectionExampleScenario.node[39].appl 	IntersectionEnterTime 	116
scalar IntersectionExampleScenario.node[39].appl 	IntersectionExitTime 	143.06153721313
scalar IntersectionExampleScenario.node[39].appl 	NumberOfCollisions 	0
scalar IntersectionExampleScenario.node[39].nic.phy80211p 	busyTime 	0
scalar IntersectionExampleScenario.node[39].nic.mac1609_4 	ReceivedUnicastPackets 	0
scalar IntersectionExampleScenario.node[39].nic.mac1609_4 	ReceivedBroadcasts 	0
scalar IntersectionExampleScenario.node[39].nic.mac1609_4 	SentPackets 	0
scalar IntersectionExampleScenario.node[39].nic.mac1609_4 	SNIRLostPackets 	0
scalar IntersectionExampleScenario.node[39].nic.mac1609_4 	RXTXLostPackets 	0
scalar IntersectionExampleScenario.node[39].nic.mac1609_4 	TotalLostPackets 	0
scalar IntersectionExampleScenario.node[39].nic.mac1609_4 	DroppedPacketsInMac 	0
scalar IntersectionExampleScenario.node[39].nic.mac1609_4 	TooLittleTime 	0
scalar IntersectionExampleScenario.node[39].nic.mac1609_4 	TimesIntoBackoff 	0
scalar IntersectionExampleScenario.node[39].nic.mac1609_4 	SlotsBackoff 	0
scalar IntersectionExampleScenario.node[39].nic.mac1609_4 	NumInternalContention 	0
scalar IntersectionExampleScenario.node[39].nic.mac1609_4 	totalBusyTime 	0
scalar IntersectionExampleScenario.node[39].veinsmobility 	startTime 	116
scalar IntersectionExampleScenario.node[39].veinsmobility 	totalTime 	44
scalar IntersectionExampleScenario.node[39].veinsmobility 	stopTime 	160.25
scalar IntersectionExampleScenario.node[39].veinsmobility 	minSpeed 	5.6500000953674
scalar IntersectionExampleScenario.node[39].veinsmobility 	maxSpeed 	15.25
scalar IntersectionExampleScenario.node[39].veinsmobility 	totalDistance 	543.87426510236
scalar IntersectionExampleScenario.node[39].veinsmobility 	totalCO2Emission 	130.75125678517
scalar IntersectionExampleScenario.node[41].appl 	VehicleRemoved 	0
scalar IntersectionExampleScenario.node[41].appl 	ArrivedAtDest 	1
scalar IntersectionExampleScenario.node[41].appl 	IntersectionEnterTime 	117
scalar IntersectionExampleScenario.node[41].appl 	IntersectionExitTime 	144.78192437635
scalar IntersectionExampleScenario.node[41].appl 	NumberOfCollisions 	0
scalar IntersectionExampleScenario.node[41].nic.phy80211p 	busyTime 	0
scalar IntersectionExampleScenario.node[41].nic.mac1609_4 	ReceivedUnicastPackets 	0
scalar IntersectionExampleScenario.node[41].nic.mac1609_4 	ReceivedBroadcasts 	0
scalar IntersectionExampleScenario.node[41].nic.mac1609_4 	SentPackets 	0
scalar IntersectionExampleScenario.node[41].nic.mac1609_4 	SNIRLostPackets 	0
scalar IntersectionExampleScenario.node[41].nic.mac1609_4 	RXTXLostPackets 	0
scalar IntersectionExampleScenario.node[41].nic.mac1609_4 	TotalLostPackets 	0
scalar IntersectionExampleScenario.node[41].nic.mac1609_4 	DroppedPacketsInMac 	0
scalar IntersectionExampleScenario.node[41].nic.mac1609_4 	TooLittleTime 	0
scalar IntersectionExampleScenario.node[41].nic.mac1609_4 	TimesIntoBackoff 	0
scalar IntersectionExampleScenario.node[41].nic.mac1609_4 	SlotsBackoff 	0
scalar IntersectionExampleScenario.node[41].nic.mac1609_4 	NumInternalContention 	0
scalar IntersectionExampleScenario.node[41].nic.mac1609_4 	totalBusyTime 	0
scalar IntersectionExampleScenario.node[41].veinsmobility 	startTime 	117
scalar IntersectionExampleScenario.node[41].veinsmobility 	totalTime 	44.25
scalar IntersectionExampleScenario.node[41].veinsmobility 	stopTime 	161.5
scalar IntersectionExampleScenario.node[41].veinsmobility 	minSpeed 	5.6500000953674
scalar IntersectionExampleScenario.node[41].veinsmobility 	maxSpeed 	14.939848899841
scalar IntersectionExampleScenario.node[41].veinsmobility 	totalDistance 	574.58299255371
scalar IntersectionExampleScenario.node[41].veinsmobility 	totalCO2Emission 	127.04490396613
scalar IntersectionExampleScenario.node[42].appl 	VehicleRemoved 	0
scalar IntersectionExampleScenario.node[42].appl 	ArrivedAtDest 	1
scalar IntersectionExampleScenario.node[42].appl 	IntersectionEnterTime 	125.25
scalar IntersectionExampleScenario.node[42].appl 	IntersectionExitTime 	149.01143490573
scalar IntersectionExampleScenario.node[42].appl 	NumberOfCollisions 	0
scalar IntersectionExampleScenario.node[42].nic.phy80211p 	busyTime 	0
scalar IntersectionExampleScenario.node[42].nic.mac1609_4 	ReceivedUnicastPackets 	0
scalar IntersectionExampleScenario.node[42].nic.mac1609_4 	ReceivedBroadcasts 	0
scalar IntersectionExampleScenario.node[42].nic.mac1609_4 	SentPackets 	0
scalar IntersectionExampleScenario.node[42].nic.mac1609_4 	SNIRLostPackets 	0
scalar IntersectionExampleScenario.node[42].nic.mac1609_4 	RXTXLostPackets 	0
scalar IntersectionExampleScenario.node[42].nic.mac1609_4 	TotalLostPackets 	0
scalar IntersectionExampleScenario.node[42].nic.mac1609_4 	DroppedPacketsInMac 	0
scalar IntersectionExampleScenario.node[42].nic.mac1609_4 	TooLittleTime 	0
scalar IntersectionExampleScenario.node[42].nic.mac1609_4 	TimesIntoBackoff 	0
scalar IntersectionExampleScenario.node[42].nic.mac1609_4 	SlotsBackoff 	0
scalar IntersectionExampleScenario.node[42].nic.mac1609_4 	NumInternalContention 	0
scalar IntersectionExampleScenario.node[42].nic.mac1609_4 	totalBusyTime 	0
scalar IntersectionExampleScenario.node[42].veinsmobility 	startTime 	125.25
scalar IntersectionExampleScenario.node[42].veinsmobility 	totalTime 	40.5
scalar IntersectionExampleScenario.node[42].veinsmobility 	stopTime 	166
scalar IntersectionExampleScenario.node[42].veinsmobility 	minSpeed 	5.6500000953674
scalar IntersectionExampleScenario.node[42].veinsmobility 	maxSpeed 	15.493509292603
scalar IntersectionExampleScenario.node[42].veinsmobility 	totalDistance 	546.38506896292
scalar IntersectionExampleScenario.node[42].veinsmobility 	totalCO2Emission 	128.68868465285
scalar IntersectionExampleScenario.node[27].appl 	VehicleRemoved 	0
scalar IntersectionExampleScenario.node[27].appl 	ArrivedAtDest 	1
scalar IntersectionExampleScenario.node[27].appl 	IntersectionEnterTime 	74.75
scalar IntersectionExampleScenario.node[27].appl 	IntersectionExitTime 	153.60672686202
scalar IntersectionExampleScenario.node[27].appl 	NumberOfCollisions 	0
scalar IntersectionExampleScenario.node[27].nic.phy80211p 	busyTime 	0
scalar IntersectionExampleScenario.node[27].nic.mac1609_4 	ReceivedUnicastPackets 	0
scalar IntersectionExampleScenario.node[27].nic.mac1609_4 	ReceivedBroadcasts 	0
scalar IntersectionExampleScenario.node[27].nic.mac1609_4 	SentPackets 	0
scalar IntersectionExampleScenario.node[27].nic.mac1609_4 	SNIRLostPackets 	0
scalar IntersectionExampleScenario.node[27].nic.mac1609_4 	RXTXLostPackets 	0
scalar IntersectionExampleScenario.node[27].nic.mac1609_4 	TotalLostPackets 	0
scalar IntersectionExampleScenario.node[27].nic.mac1609_4 	DroppedPacketsInMac 	0
scalar IntersectionExampleScenario.node[27].nic.mac1609_4 	TooLittleTime 	0
scalar IntersectionExampleScenario.node[27].nic.mac1609_4 	TimesIntoBackoff 	0
scalar IntersectionExampleScenario.node[27].nic.mac1609_4 	SlotsBackoff 	0
[...]
scalar IntersectionExampleScenario.node[616].veinsmobility 	totalCO2Emission 	70.850576787649
scalar IntersectionExampleScenario.node[617].appl 	VehicleRemoved 	0
scalar IntersectionExampleScenario.node[617].appl 	ArrivedAtDest 	0
scalar IntersectionExampleScenario.node[617].appl 	IntersectionEnterTime 	1781.75
scalar IntersectionExampleScenario.node[617].appl 	IntersectionExitTime 	-1
scalar IntersectionExampleScenario.node[617].appl 	NumberOfCollisions 	0
scalar IntersectionExampleScenario.node[617].nic.phy80211p 	busyTime 	0
scalar IntersectionExampleScenario.node[617].nic.mac1609_4 	ReceivedUnicastPackets 	0
scalar IntersectionExampleScenario.node[617].nic.mac1609_4 	ReceivedBroadcasts 	0
scalar IntersectionExampleScenario.node[617].nic.mac1609_4 	SentPackets 	0
scalar IntersectionExampleScenario.node[617].nic.mac1609_4 	SNIRLostPackets 	0
scalar IntersectionExampleScenario.node[617].nic.mac1609_4 	RXTXLostPackets 	0
scalar IntersectionExampleScenario.node[617].nic.mac1609_4 	TotalLostPackets 	0
scalar IntersectionExampleScenario.node[617].nic.mac1609_4 	DroppedPacketsInMac 	0
scalar IntersectionExampleScenario.node[617].nic.mac1609_4 	TooLittleTime 	0
scalar IntersectionExampleScenario.node[617].nic.mac1609_4 	TimesIntoBackoff 	0
scalar IntersectionExampleScenario.node[617].nic.mac1609_4 	SlotsBackoff 	0
scalar IntersectionExampleScenario.node[617].nic.mac1609_4 	NumInternalContention 	0
scalar IntersectionExampleScenario.node[617].nic.mac1609_4 	totalBusyTime 	0
scalar IntersectionExampleScenario.node[617].veinsmobility 	startTime 	1781.75
scalar IntersectionExampleScenario.node[617].veinsmobility 	totalTime 	18.25
scalar IntersectionExampleScenario.node[617].veinsmobility 	stopTime 	1800
scalar IntersectionExampleScenario.node[617].veinsmobility 	minSpeed 	5.6500000953674
scalar IntersectionExampleScenario.node[617].veinsmobility 	maxSpeed 	16.27499961853
scalar IntersectionExampleScenario.node[617].veinsmobility 	totalDistance 	236.14310455322
scalar IntersectionExampleScenario.node[617].veinsmobility 	totalCO2Emission 	58.530043186701
scalar IntersectionExampleScenario.node[618].appl 	VehicleRemoved 	0
scalar IntersectionExampleScenario.node[618].appl 	ArrivedAtDest 	0
scalar IntersectionExampleScenario.node[618].appl 	IntersectionEnterTime 	1785.75
scalar IntersectionExampleScenario.node[618].appl 	IntersectionExitTime 	-1
scalar IntersectionExampleScenario.node[618].appl 	NumberOfCollisions 	0
scalar IntersectionExampleScenario.node[618].nic.phy80211p 	busyTime 	0
scalar IntersectionExampleScenario.node[618].nic.mac1609_4 	ReceivedUnicastPackets 	0
scalar IntersectionExampleScenario.node[618].nic.mac1609_4 	ReceivedBroadcasts 	0
scalar IntersectionExampleScenario.node[618].nic.mac1609_4 	SentPackets 	0
scalar IntersectionExampleScenario.node[618].nic.mac1609_4 	SNIRLostPackets 	0
scalar IntersectionExampleScenario.node[618].nic.mac1609_4 	RXTXLostPackets 	0
scalar IntersectionExampleScenario.node[618].nic.mac1609_4 	TotalLostPackets 	0
scalar IntersectionExampleScenario.node[618].nic.mac1609_4 	DroppedPacketsInMac 	0
scalar IntersectionExampleScenario.node[618].nic.mac1609_4 	TooLittleTime 	0
scalar IntersectionExampleScenario.node[618].nic.mac1609_4 	TimesIntoBackoff 	0
scalar IntersectionExampleScenario.node[618].nic.mac1609_4 	SlotsBackoff 	0
scalar IntersectionExampleScenario.node[618].nic.mac1609_4 	NumInternalContention 	0
scalar IntersectionExampleScenario.node[618].nic.mac1609_4 	totalBusyTime 	0
scalar IntersectionExampleScenario.node[618].veinsmobility 	startTime 	1785.75
scalar IntersectionExampleScenario.node[618].veinsmobility 	totalTime 	14.25
scalar IntersectionExampleScenario.node[618].veinsmobility 	stopTime 	1800
scalar IntersectionExampleScenario.node[618].veinsmobility 	minSpeed 	5.6500000953674
scalar IntersectionExampleScenario.node[618].veinsmobility 	maxSpeed 	15.02499961853
scalar IntersectionExampleScenario.node[618].veinsmobility 	totalDistance 	192.67343139648
scalar IntersectionExampleScenario.node[618].veinsmobility 	totalCO2Emission 	50.072813285856
scalar IntersectionExampleScenario.node[619].appl 	VehicleRemoved 	0
scalar IntersectionExampleScenario.node[619].appl 	ArrivedAtDest 	0
scalar IntersectionExampleScenario.node[619].appl 	IntersectionEnterTime 	1791.5
scalar IntersectionExampleScenario.node[619].appl 	IntersectionExitTime 	-1
scalar IntersectionExampleScenario.node[619].appl 	NumberOfCollisions 	0
scalar IntersectionExampleScenario.node[619].nic.phy80211p 	busyTime 	0
scalar IntersectionExampleScenario.node[619].nic.mac1609_4 	ReceivedUnicastPackets 	0
scalar IntersectionExampleScenario.node[619].nic.mac1609_4 	ReceivedBroadcasts 	0
scalar IntersectionExampleScenario.node[619].nic.mac1609_4 	SentPackets 	0
scalar IntersectionExampleScenario.node[619].nic.mac1609_4 	SNIRLostPackets 	0
scalar IntersectionExampleScenario.node[619].nic.mac1609_4 	RXTXLostPackets 	0
scalar IntersectionExampleScenario.node[619].nic.mac1609_4 	TotalLostPackets 	0
scalar IntersectionExampleScenario.node[619].nic.mac1609_4 	DroppedPacketsInMac 	0
scalar IntersectionExampleScenario.node[619].nic.mac1609_4 	TooLittleTime 	0
scalar IntersectionExampleScenario.node[619].nic.mac1609_4 	TimesIntoBackoff 	0
scalar IntersectionExampleScenario.node[619].nic.mac1609_4 	SlotsBackoff 	0
scalar IntersectionExampleScenario.node[619].nic.mac1609_4 	NumInternalContention 	0
scalar IntersectionExampleScenario.node[619].nic.mac1609_4 	totalBusyTime 	0
scalar IntersectionExampleScenario.node[619].veinsmobility 	startTime 	1791.5
scalar IntersectionExampleScenario.node[619].veinsmobility 	totalTime 	8.5
scalar IntersectionExampleScenario.node[619].veinsmobility 	stopTime 	1800
scalar IntersectionExampleScenario.node[619].veinsmobility 	minSpeed 	5.6500000953674
scalar IntersectionExampleScenario.node[619].veinsmobility 	maxSpeed 	15.02499961853
scalar IntersectionExampleScenario.node[619].veinsmobility 	totalDistance 	106.45153808594
scalar IntersectionExampleScenario.node[619].veinsmobility 	totalCO2Emission 	38.979477459421
scalar IntersectionExampleScenario.node[620].appl 	VehicleRemoved 	0
scalar IntersectionExampleScenario.node[620].appl 	ArrivedAtDest 	0
scalar IntersectionExampleScenario.node[620].appl 	IntersectionEnterTime 	1792.25
scalar IntersectionExampleScenario.node[620].appl 	IntersectionExitTime 	-1
scalar IntersectionExampleScenario.node[620].appl 	NumberOfCollisions 	0
scalar IntersectionExampleScenario.node[620].nic.phy80211p 	busyTime 	0
scalar IntersectionExampleScenario.node[620].nic.mac1609_4 	ReceivedUnicastPackets 	0
scalar IntersectionExampleScenario.node[620].nic.mac1609_4 	ReceivedBroadcasts 	0
scalar IntersectionExampleScenario.node[620].nic.mac1609_4 	SentPackets 	0
scalar IntersectionExampleScenario.node[620].nic.mac1609_4 	SNIRLostPackets 	0
scalar IntersectionExampleScenario.node[620].nic.mac1609_4 	RXTXLostPackets 	0
scalar IntersectionExampleScenario.node[620].nic.mac1609_4 	TotalLostPackets 	0
scalar IntersectionExampleScenario.node[620].nic.mac1609_4 	DroppedPacketsInMac 	0
scalar IntersectionExampleScenario.node[620].nic.mac1609_4 	TooLittleTime 	0
scalar IntersectionExampleScenario.node[620].nic.mac1609_4 	TimesIntoBackoff 	0
scalar IntersectionExampleScenario.node[620].nic.mac1609_4 	SlotsBackoff 	0
scalar IntersectionExampleScenario.node[620].nic.mac1609_4 	NumInternalContention 	0
scalar IntersectionExampleScenario.node[620].nic.mac1609_4 	totalBusyTime 	0
scalar IntersectionExampleScenario.node[620].veinsmobility 	startTime 	1792.25
scalar IntersectionExampleScenario.node[620].veinsmobility 	totalTime 	7.75
scalar IntersectionExampleScenario.node[620].veinsmobility 	stopTime 	1800
scalar IntersectionExampleScenario.node[620].veinsmobility 	minSpeed 	5.6500000953674
scalar IntersectionExampleScenario.node[620].veinsmobility 	maxSpeed 	15.02499961853
scalar IntersectionExampleScenario.node[620].veinsmobility 	totalDistance 	95.190223693848
scalar IntersectionExampleScenario.node[620].veinsmobility 	totalCO2Emission 	37.156992641824
scalar IntersectionExampleScenario.node[621].appl 	VehicleRemoved 	0
scalar IntersectionExampleScenario.node[621].appl 	ArrivedAtDest 	0
scalar IntersectionExampleScenario.node[621].appl 	IntersectionEnterTime 	1792.5
scalar IntersectionExampleScenario.node[621].appl 	IntersectionExitTime 	-1
scalar IntersectionExampleScenario.node[621].appl 	NumberOfCollisions 	0
scalar IntersectionExampleScenario.node[621].nic.phy80211p 	busyTime 	0
scalar IntersectionExampleScenario.node[621].nic.mac1609_4 	ReceivedUnicastPackets 	0
scalar IntersectionExampleScenario.node[621].nic.mac1609_4 	ReceivedBroadcasts 	0
scalar IntersectionExampleScenario.node[621].nic.mac1609_4 	SentPackets 	0
scalar IntersectionExampleScenario.node[621].nic.mac1609_4 	SNIRLostPackets 	0
scalar IntersectionExampleScenario.node[621].nic.mac1609_4 	RXTXLostPackets 	0
scalar IntersectionExampleScenario.node[621].nic.mac1609_4 	TotalLostPackets 	0
scalar IntersectionExampleScenario.node[621].nic.mac1609_4 	DroppedPacketsInMac 	0
scalar IntersectionExampleScenario.node[621].nic.mac1609_4 	TooLittleTime 	0
scalar IntersectionExampleScenario.node[621].nic.mac1609_4 	TimesIntoBackoff 	0
scalar IntersectionExampleScenario.node[621].nic.mac1609_4 	SlotsBackoff 	0
scalar IntersectionExampleScenario.node[621].nic.mac1609_4 	NumInternalContention 	0
scalar IntersectionExampleScenario.node[621].nic.mac1609_4 	totalBusyTime 	0
scalar IntersectionExampleScenario.node[621].veinsmobility 	startTime 	1792.5
scalar IntersectionExampleScenario.node[621].veinsmobility 	totalTime 	7.5
scalar IntersectionExampleScenario.node[621].veinsmobility 	stopTime 	1800
scalar IntersectionExampleScenario.node[621].veinsmobility 	minSpeed 	5.6500000953674
scalar IntersectionExampleScenario.node[621].veinsmobility 	maxSpeed 	15.92613697052
scalar IntersectionExampleScenario.node[621].veinsmobility 	totalDistance 	94.351440429688
scalar IntersectionExampleScenario.node[621].veinsmobility 	totalCO2Emission 	41.735945641523
scalar IntersectionExampleScenario.node[622].appl 	VehicleRemoved 	0
scalar IntersectionExampleScenario.node[622].appl 	ArrivedAtDest 	0
scalar IntersectionExampleScenario.node[622].appl 	IntersectionEnterTime 	1792.75
scalar IntersectionExampleScenario.node[622].appl 	IntersectionExitTime 	-1
scalar IntersectionExampleScenario.node[622].appl 	NumberOfCollisions 	0
scalar IntersectionExampleScenario.node[622].nic.phy80211p 	busyTime 	0
scalar IntersectionExampleScenario.node[622].nic.mac1609_4 	ReceivedUnicastPackets 	0
scalar IntersectionExampleScenario.node[622].nic.mac1609_4 	ReceivedBroadcasts 	0
scalar IntersectionExampleScenario.node[622].nic.mac1609_4 	SentPackets 	0
scalar IntersectionExampleScenario.node[622].nic.mac1609_4 	SNIRLostPackets 	0
scalar IntersectionExampleScenario.node[622].nic.mac1609_4 	RXTXLostPackets 	0
scalar IntersectionExampleScenario.node[622].nic.mac1609_4 	TotalLostPackets 	0
scalar IntersectionExampleScenario.node[622].nic.mac1609_4 	DroppedPacketsInMac 	0
scalar IntersectionExampleScenario.node[622].nic.mac1609_4 	TooLittleTime 	0
scalar IntersectionExampleScenario.node[622].nic.mac1609_4 	TimesIntoBackoff 	0
scalar IntersectionExampleScenario.node[622].nic.mac1609_4 	SlotsBackoff 	0
scalar IntersectionExampleScenario.node[622].nic.mac1609_4 	NumInternalContention 	0
scalar IntersectionExampleScenario.node[622].nic.mac1609_4 	totalBusyTime 	0
scalar IntersectionExampleScenario.node[622].veinsmobility 	startTime 	1792.75
scalar IntersectionExampleScenario.node[622].veinsmobility 	totalTime 	7.25
scalar IntersectionExampleScenario.node[622].veinsmobility 	stopTime 	1800
scalar IntersectionExampleScenario.node[622].veinsmobility 	minSpeed 	5.6500000953674
scalar IntersectionExampleScenario.node[622].veinsmobility 	maxSpeed 	15.681921958923
scalar IntersectionExampleScenario.node[622].veinsmobility 	totalDistance 	90.315376281738
scalar IntersectionExampleScenario.node[622].veinsmobility 	totalCO2Emission 	39.780206049087
scalar IntersectionExampleScenario.node[623].appl 	VehicleRemoved 	0
scalar IntersectionExampleScenario.node[623].appl 	ArrivedAtDest 	0
scalar IntersectionExampleScenario.node[623].appl 	IntersectionEnterTime 	1795.25
scalar IntersectionExampleScenario.node[623].appl 	IntersectionExitTime 	-1
scalar IntersectionExampleScenario.node[623].appl 	NumberOfCollisions 	0
scalar IntersectionExampleScenario.node[623].nic.phy80211p 	busyTime 	0
scalar IntersectionExampleScenario.node[623].nic.mac1609_4 	ReceivedUnicastPackets 	0
scalar IntersectionExampleScenario.node[623].nic.mac1609_4 	ReceivedBroadcasts 	0
scalar IntersectionExampleScenario.node[623].nic.mac1609_4 	SentPackets 	0
scalar IntersectionExampleScenario.node[623].nic.mac1609_4 	SNIRLostPackets 	0
scalar IntersectionExampleScenario.node[623].nic.mac1609_4 	RXTXLostPackets 	0
scalar IntersectionExampleScenario.node[623].nic.mac1609_4 	TotalLostPackets 	0
scalar IntersectionExampleScenario.node[623].nic.mac1609_4 	DroppedPacketsInMac 	0
scalar IntersectionExampleScenario.node[623].nic.mac1609_4 	TooLittleTime 	0
scalar IntersectionExampleScenario.node[623].nic.mac1609_4 	TimesIntoBackoff 	0
scalar IntersectionExampleScenario.node[623].nic.mac1609_4 	SlotsBackoff 	0
scalar IntersectionExampleScenario.node[623].nic.mac1609_4 	NumInternalContention 	0
scalar IntersectionExampleScenario.node[623].nic.mac1609_4 	totalBusyTime 	0
scalar IntersectionExampleScenario.node[623].veinsmobility 	startTime 	1795.25
scalar IntersectionExampleScenario.node[623].veinsmobility 	totalTime 	4.75
scalar IntersectionExampleScenario.node[623].veinsmobility 	stopTime 	1800
scalar IntersectionExampleScenario.node[623].veinsmobility 	minSpeed 	5.6500000953674
scalar IntersectionExampleScenario.node[623].veinsmobility 	maxSpeed 	15.02499961853
scalar IntersectionExampleScenario.node[623].veinsmobility 	totalDistance 	51.331970214844
scalar IntersectionExampleScenario.node[623].veinsmobility 	totalCO2Emission 	31.987695437219
scalar IntersectionExampleScenario.node[624].appl 	VehicleRemoved 	0
scalar IntersectionExampleScenario.node[624].appl 	ArrivedAtDest 	0
scalar IntersectionExampleScenario.node[624].appl 	IntersectionEnterTime 	1795.5
scalar IntersectionExampleScenario.node[624].appl 	IntersectionExitTime 	-1
scalar IntersectionExampleScenario.node[624].appl 	NumberOfCollisions 	0
scalar IntersectionExampleScenario.node[624].nic.phy80211p 	busyTime 	0
scalar IntersectionExampleScenario.node[624].nic.mac1609_4 	ReceivedUnicastPackets 	0
scalar IntersectionExampleScenario.node[624].nic.mac1609_4 	ReceivedBroadcasts 	0
scalar IntersectionExampleScenario.node[624].nic.mac1609_4 	SentPackets 	0
scalar IntersectionExampleScenario.node[624].nic.mac1609_4 	SNIRLostPackets 	0
scalar IntersectionExampleScenario.node[624].nic.mac1609_4 	RXTXLostPackets 	0
scalar IntersectionExampleScenario.node[624].nic.mac1609_4 	TotalLostPackets 	0
scalar IntersectionExampleScenario.node[624].nic.mac1609_4 	DroppedPacketsInMac 	0
scalar IntersectionExampleScenario.node[624].nic.mac1609_4 	TooLittleTime 	0
scalar IntersectionExampleScenario.node[624].nic.mac1609_4 	TimesIntoBackoff 	0
scalar IntersectionExampleScenario.node[624].nic.mac1609_4 	SlotsBackoff 	0
scalar IntersectionExampleScenario.node[624].nic.mac1609_4 	NumInternalContention 	0
scalar IntersectionExampleScenario.node[624].nic.mac1609_4 	totalBusyTime 	0
scalar IntersectionExampleScenario.node[624].veinsmobility 	startTime 	1795.5
scalar IntersectionExampleScenario.node[624].veinsmobility 	totalTime 	4.5
scalar IntersectionExampleScenario.node[624].veinsmobility 	stopTime 	1800
scalar IntersectionExampleScenario.node[624].veinsmobility 	minSpeed 	5.6500000953674
scalar IntersectionExampleScenario.node[624].veinsmobility 	maxSpeed 	15.02499961853
scalar IntersectionExampleScenario.node[624].veinsmobility 	totalDistance 	47.602294921875
scalar IntersectionExampleScenario.node[624].veinsmobility 	totalCO2Emission 	31.585884433634
scalar IntersectionExampleScenario.node[625].appl 	VehicleRemoved 	0
scalar IntersectionExampleScenario.node[625].appl 	ArrivedAtDest 	0
scalar IntersectionExampleScenario.node[625].appl 	IntersectionEnterTime 	1798
scalar IntersectionExampleScenario.node[625].appl 	IntersectionExitTime 	-1
scalar IntersectionExampleScenario.node[625].appl 	NumberOfCollisions 	0
scalar IntersectionExampleScenario.node[625].nic.phy80211p 	busyTime 	0
scalar IntersectionExampleScenario.node[625].nic.mac1609_4 	ReceivedUnicastPackets 	0
scalar IntersectionExampleScenario.node[625].nic.mac1609_4 	ReceivedBroadcasts 	0
scalar IntersectionExampleScenario.node[625].nic.mac1609_4 	SentPackets 	0
scalar IntersectionExampleScenario.node[625].nic.mac1609_4 	SNIRLostPackets 	0
scalar IntersectionExampleScenario.node[625].nic.mac1609_4 	RXTXLostPackets 	0
scalar IntersectionExampleScenario.node[625].nic.mac1609_4 	TotalLostPackets 	0
scalar IntersectionExampleScenario.node[625].nic.mac1609_4 	DroppedPacketsInMac 	0
scalar IntersectionExampleScenario.node[625].nic.mac1609_4 	TooLittleTime 	0
scalar IntersectionExampleScenario.node[625].nic.mac1609_4 	TimesIntoBackoff 	0
scalar IntersectionExampleScenario.node[625].nic.mac1609_4 	SlotsBackoff 	0
scalar IntersectionExampleScenario.node[625].nic.mac1609_4 	NumInternalContention 	0
scalar IntersectionExampleScenario.node[625].nic.mac1609_4 	totalBusyTime 	0
scalar IntersectionExampleScenario.node[625].veinsmobility 	startTime 	1798
scalar IntersectionExampleScenario.node[625].veinsmobility 	totalTime 	2
scalar IntersectionExampleScenario.node[625].veinsmobility 	stopTime 	1800
scalar IntersectionExampleScenario.node[625].veinsmobility 	minSpeed 	5.6500000953674
scalar IntersectionExampleScenario.node[625].veinsmobility 	maxSpeed 	10.02499961853
scalar IntersectionExampleScenario.node[625].veinsmobility 	totalDistance 	15.049987792969
scalar IntersectionExampleScenario.node[625].veinsmobility 	totalCO2Emission 	11.317369352905
scalar IntersectionExampleScenario.node[626].appl 	VehicleRemoved 	0
scalar IntersectionExampleScenario.node[626].appl 	ArrivedAtDest 	0
scalar IntersectionExampleScenario.node[626].appl 	IntersectionEnterTime 	1798.75
scalar IntersectionExampleScenario.node[626].appl 	IntersectionExitTime 	-1
scalar IntersectionExampleScenario.node[626].appl 	NumberOfCollisions 	0
scalar IntersectionExampleScenario.node[626].nic.phy80211p 	busyTime 	0
scalar IntersectionExampleScenario.node[626].nic.mac1609_4 	ReceivedUnicastPackets 	0
scalar IntersectionExampleScenario.node[626].nic.mac1609_4 	ReceivedBroadcasts 	0
scalar IntersectionExampleScenario.node[626].nic.mac1609_4 	SentPackets 	0
scalar IntersectionExampleScenario.node[626].nic.mac1609_4 	SNIRLostPackets 	0
scalar IntersectionExampleScenario.node[626].nic.mac1609_4 	RXTXLostPackets 	0
scalar IntersectionExampleScenario.node[626].nic.mac1609_4 	TotalLostPackets 	0
scalar IntersectionExampleScenario.node[626].nic.mac1609_4 	DroppedPacketsInMac 	0
scalar IntersectionExampleScenario.node[626].nic.mac1609_4 	TooLittleTime 	0
scalar IntersectionExampleScenario.node[626].nic.mac1609_4 	TimesIntoBackoff 	0
scalar IntersectionExampleScenario.node[626].nic.mac1609_4 	SlotsBackoff 	0
scalar IntersectionExampleScenario.node[626].nic.mac1609_4 	NumInternalContention 	0
scalar IntersectionExampleScenario.node[626].nic.mac1609_4 	totalBusyTime 	0
scalar IntersectionExampleScenario.node[626].veinsmobility 	startTime 	1798.75
scalar IntersectionExampleScenario.node[626].veinsmobility 	totalTime 	1.25
scalar IntersectionExampleScenario.node[626].veinsmobility 	stopTime 	1800
scalar IntersectionExampleScenario.node[626].veinsmobility 	minSpeed 	5.6500000953674
scalar IntersectionExampleScenario.node[626].veinsmobility 	maxSpeed 	8.1499996185303
scalar IntersectionExampleScenario.node[626].veinsmobility 	totalDistance 	8.2343673706055
scalar IntersectionExampleScenario.node[626].veinsmobility 	totalCO2Emission 	5.8390974258108
