version 2
run nodebug-18-20200605-15:23:07-11144
attr configname nodebug
attr datetime 20200605-15:23:07
attr experiment nodebug
attr inifile omnetpp.ini
attr iterationvars ""
attr iterationvars2 $repetition=18
attr measurement ""
attr network "\"org.car2x.veins.modules.application.ExtTraCIScenarioManagerLaunchd.IntersectionExampleScenario\""
attr processid 11144
attr repetition 18
attr replication #18
attr resultdir results
attr runnumber 18
attr seedset 18
param **.coreDebug false
param **.debug false
param *.**.nic.mac1609_4.bitrate 18Mbps
param *.**.nic.mac1609_4.txPower 20mW
param *.**.nic.mac1609_4.useServiceChannel false
param *.**.nic.phy80211p.analogueModels "xmldoc(\"config.xml\")"
param *.**.nic.phy80211p.decider "xmldoc(\"config.xml\")"
param *.**.nic.phy80211p.sensitivity -89dBm
param *.**.nic.phy80211p.thermalNoise -110dBm
param *.**.nic.phy80211p.usePropagationDelay true
param *.**.nic.phy80211p.useThermalNoise true
param *.annotations.draw false
param *.connectionManager.alpha 2.0
param *.connectionManager.carrierFrequency "5.890e9 Hz"
param *.connectionManager.pMax 20mW
param *.connectionManager.sat -89dBm
param *.connectionManager.sendDirect true
param *.manager.autoShutdown true
param *.manager.host "\"localhost\""
param *.manager.launchConfig "xmldoc(\"paramics.launchd.xml\")"
param *.manager.margin 25
param *.manager.moduleDisplayString "\"\""
param *.manager.moduleName "\"node\""
param *.manager.moduleType "\"org.car2x.veins.nodes.Car\""
param *.manager.port 9999
param *.manager.updateInterval 250ms
param *.node[*0].veinsmobility.accidentCount 0
param *.node[*0].veinsmobility.accidentDuration 30s
param *.node[*0].veinsmobility.accidentStart 75s
param *.node[*].appl.LiderSelectZoneRadio 55.0
param *.node[*].appl.ShareDataZoneRadio 110.0
param *.node[*].appl.TiempoSemaforo 30.0
param *.node[*].appl.beaconInterval 1s
param *.node[*].appl.beaconPriority 3
param *.node[*].appl.dataOnSch false
param *.node[*].appl.dataPriority 2
param *.node[*].appl.debug false
param *.node[*].appl.headerLength "256 bit"
param *.node[*].appl.maxOffset 0.005s
param *.node[*].appl.sendBeacons false
param *.node[*].appl.sendData true
param *.node[*].applType "\"Dummy\""
param *.node[*].mobilityType "\"TraCIMobility\""
param *.node[*].mobilityType.debug true
param *.node[*].veinsmobility.x 0
param *.node[*].veinsmobility.y 0
param *.node[*].veinsmobility.z 1.895
param *.node[*].veinsmobilityType "\"org.car2x.veins.modules.mobility.traci.TraCIMobility\""
param *.node[*].veinsmobilityType.debug true
param *.playgroundSizeX 8500m
param *.playgroundSizeY 8500m
param *.playgroundSizeZ 50m
param *.world.use2D false
param *.world.useTorus false

scalar IntersectionExampleScenario.node[9].appl 	VehicleRemoved 	0
scalar IntersectionExampleScenario.node[9].appl 	ArrivedAtDest 	1
scalar IntersectionExampleScenario.node[9].appl 	IntersectionEnterTime 	28.25
scalar IntersectionExampleScenario.node[9].appl 	IntersectionExitTime 	51.071565988997
scalar IntersectionExampleScenario.node[9].appl 	NumberOfCollisions 	0
scalar IntersectionExampleScenario.node[9].nic.phy80211p 	busyTime 	0
scalar IntersectionExampleScenario.node[9].nic.mac1609_4 	ReceivedUnicastPackets 	0
scalar IntersectionExampleScenario.node[9].nic.mac1609_4 	ReceivedBroadcasts 	0
scalar IntersectionExampleScenario.node[9].nic.mac1609_4 	SentPackets 	0
scalar IntersectionExampleScenario.node[9].nic.mac1609_4 	SNIRLostPackets 	0
scalar IntersectionExampleScenario.node[9].nic.mac1609_4 	RXTXLostPackets 	0
scalar IntersectionExampleScenario.node[9].nic.mac1609_4 	TotalLostPackets 	0
scalar IntersectionExampleScenario.node[9].nic.mac1609_4 	DroppedPacketsInMac 	0
scalar IntersectionExampleScenario.node[9].nic.mac1609_4 	TooLittleTime 	0
scalar IntersectionExampleScenario.node[9].nic.mac1609_4 	TimesIntoBackoff 	0
scalar IntersectionExampleScenario.node[9].nic.mac1609_4 	SlotsBackoff 	0
scalar IntersectionExampleScenario.node[9].nic.mac1609_4 	NumInternalContention 	0
scalar IntersectionExampleScenario.node[9].nic.mac1609_4 	totalBusyTime 	0
scalar IntersectionExampleScenario.node[9].veinsmobility 	startTime 	28.25
scalar IntersectionExampleScenario.node[9].veinsmobility 	totalTime 	39
scalar IntersectionExampleScenario.node[9].veinsmobility 	stopTime 	67.5
scalar IntersectionExampleScenario.node[9].veinsmobility 	minSpeed 	5.6500000953674
scalar IntersectionExampleScenario.node[9].veinsmobility 	maxSpeed 	16.5
scalar IntersectionExampleScenario.node[9].veinsmobility 	totalDistance 	546.83558375209
scalar IntersectionExampleScenario.node[9].veinsmobility 	totalCO2Emission 	131.45763333526
scalar IntersectionExampleScenario.node[13].appl 	VehicleRemoved 	0
scalar IntersectionExampleScenario.node[13].appl 	ArrivedAtDest 	1
scalar IntersectionExampleScenario.node[13].appl 	IntersectionEnterTime 	38.25
scalar IntersectionExampleScenario.node[13].appl 	IntersectionExitTime 	62.256930153497
scalar IntersectionExampleScenario.node[13].appl 	NumberOfCollisions 	0
scalar IntersectionExampleScenario.node[13].nic.phy80211p 	busyTime 	0
scalar IntersectionExampleScenario.node[13].nic.mac1609_4 	ReceivedUnicastPackets 	0
scalar IntersectionExampleScenario.node[13].nic.mac1609_4 	ReceivedBroadcasts 	0
scalar IntersectionExampleScenario.node[13].nic.mac1609_4 	SentPackets 	0
scalar IntersectionExampleScenario.node[13].nic.mac1609_4 	SNIRLostPackets 	0
scalar IntersectionExampleScenario.node[13].nic.mac1609_4 	RXTXLostPackets 	0
scalar IntersectionExampleScenario.node[13].nic.mac1609_4 	TotalLostPackets 	0
scalar IntersectionExampleScenario.node[13].nic.mac1609_4 	DroppedPacketsInMac 	0
scalar IntersectionExampleScenario.node[13].nic.mac1609_4 	TooLittleTime 	0
scalar IntersectionExampleScenario.node[13].nic.mac1609_4 	TimesIntoBackoff 	0
scalar IntersectionExampleScenario.node[13].nic.mac1609_4 	SlotsBackoff 	0
scalar IntersectionExampleScenario.node[13].nic.mac1609_4 	NumInternalContention 	0
scalar IntersectionExampleScenario.node[13].nic.mac1609_4 	totalBusyTime 	0
scalar IntersectionExampleScenario.node[13].veinsmobility 	startTime 	38.25
scalar IntersectionExampleScenario.node[13].veinsmobility 	totalTime 	41
scalar IntersectionExampleScenario.node[13].veinsmobility 	stopTime 	79.5
scalar IntersectionExampleScenario.node[13].veinsmobility 	minSpeed 	5.6500000953674
scalar IntersectionExampleScenario.node[13].veinsmobility 	maxSpeed 	14.39999961853
scalar IntersectionExampleScenario.node[13].veinsmobility 	totalDistance 	553.81349182129
scalar IntersectionExampleScenario.node[13].veinsmobility 	totalCO2Emission 	111.96954227837
scalar IntersectionExampleScenario.node[0].appl 	VehicleRemoved 	0
scalar IntersectionExampleScenario.node[0].appl 	ArrivedAtDest 	1
scalar IntersectionExampleScenario.node[0].appl 	IntersectionEnterTime 	4.5
scalar IntersectionExampleScenario.node[0].appl 	IntersectionExitTime 	68.272730027733
scalar IntersectionExampleScenario.node[0].appl 	NumberOfCollisions 	0
scalar IntersectionExampleScenario.node[0].nic.phy80211p 	busyTime 	0
scalar IntersectionExampleScenario.node[0].nic.mac1609_4 	ReceivedUnicastPackets 	0
scalar IntersectionExampleScenario.node[0].nic.mac1609_4 	ReceivedBroadcasts 	0
scalar IntersectionExampleScenario.node[0].nic.mac1609_4 	SentPackets 	0
scalar IntersectionExampleScenario.node[0].nic.mac1609_4 	SNIRLostPackets 	0
scalar IntersectionExampleScenario.node[0].nic.mac1609_4 	RXTXLostPackets 	0
scalar IntersectionExampleScenario.node[0].nic.mac1609_4 	TotalLostPackets 	0
scalar IntersectionExampleScenario.node[0].nic.mac1609_4 	DroppedPacketsInMac 	0
scalar IntersectionExampleScenario.node[0].nic.mac1609_4 	TooLittleTime 	0
scalar IntersectionExampleScenario.node[0].nic.mac1609_4 	TimesIntoBackoff 	0
scalar IntersectionExampleScenario.node[0].nic.mac1609_4 	SlotsBackoff 	0
scalar IntersectionExampleScenario.node[0].nic.mac1609_4 	NumInternalContention 	0
scalar IntersectionExampleScenario.node[0].nic.mac1609_4 	totalBusyTime 	0
scalar IntersectionExampleScenario.node[0].veinsmobility 	startTime 	4.5
scalar IntersectionExampleScenario.node[0].veinsmobility 	totalTime 	79.75
scalar IntersectionExampleScenario.node[0].veinsmobility 	stopTime 	84.5
scalar IntersectionExampleScenario.node[0].veinsmobility 	minSpeed 	0
scalar IntersectionExampleScenario.node[0].veinsmobility 	maxSpeed 	15.64999961853
scalar IntersectionExampleScenario.node[0].veinsmobility 	totalDistance 	552.47965240479
scalar IntersectionExampleScenario.node[0].veinsmobility 	totalCO2Emission 	171.4147345165
scalar IntersectionExampleScenario.node[1].appl 	VehicleRemoved 	0
scalar IntersectionExampleScenario.node[1].appl 	ArrivedAtDest 	1
scalar IntersectionExampleScenario.node[1].appl 	IntersectionEnterTime 	6.5
scalar IntersectionExampleScenario.node[1].appl 	IntersectionExitTime 	69.373486931116
scalar IntersectionExampleScenario.node[1].appl 	NumberOfCollisions 	0
scalar IntersectionExampleScenario.node[1].nic.phy80211p 	busyTime 	0
scalar IntersectionExampleScenario.node[1].nic.mac1609_4 	ReceivedUnicastPackets 	0
scalar IntersectionExampleScenario.node[1].nic.mac1609_4 	ReceivedBroadcasts 	0
scalar IntersectionExampleScenario.node[1].nic.mac1609_4 	SentPackets 	0
scalar IntersectionExampleScenario.node[1].nic.mac1609_4 	SNIRLostPackets 	0
scalar IntersectionExampleScenario.node[1].nic.mac1609_4 	RXTXLostPackets 	0
scalar IntersectionExampleScenario.node[1].nic.mac1609_4 	TotalLostPackets 	0
scalar IntersectionExampleScenario.node[1].nic.mac1609_4 	DroppedPacketsInMac 	0
scalar IntersectionExampleScenario.node[1].nic.mac1609_4 	TooLittleTime 	0
scalar IntersectionExampleScenario.node[1].nic.mac1609_4 	TimesIntoBackoff 	0
scalar IntersectionExampleScenario.node[1].nic.mac1609_4 	SlotsBackoff 	0
scalar IntersectionExampleScenario.node[1].nic.mac1609_4 	NumInternalContention 	0
scalar IntersectionExampleScenario.node[1].nic.mac1609_4 	totalBusyTime 	0
scalar IntersectionExampleScenario.node[1].veinsmobility 	startTime 	6.5
scalar IntersectionExampleScenario.node[1].veinsmobility 	totalTime 	79.5
scalar IntersectionExampleScenario.node[1].veinsmobility 	stopTime 	86.25
scalar IntersectionExampleScenario.node[1].veinsmobility 	minSpeed 	0
scalar IntersectionExampleScenario.node[1].veinsmobility 	maxSpeed 	15.375
scalar IntersectionExampleScenario.node[1].veinsmobility 	totalDistance 	570.18078896609
scalar IntersectionExampleScenario.node[1].veinsmobility 	totalCO2Emission 	170.42746838257
scalar IntersectionExampleScenario.node[2].appl 	VehicleRemoved 	0
scalar IntersectionExampleScenario.node[2].appl 	ArrivedAtDest 	1
scalar IntersectionExampleScenario.node[2].appl 	IntersectionEnterTime 	11
scalar IntersectionExampleScenario.node[2].appl 	IntersectionExitTime 	72.355914048821
scalar IntersectionExampleScenario.node[2].appl 	NumberOfCollisions 	0
scalar IntersectionExampleScenario.node[2].nic.phy80211p 	busyTime 	0
scalar IntersectionExampleScenario.node[2].nic.mac1609_4 	ReceivedUnicastPackets 	0
scalar IntersectionExampleScenario.node[2].nic.mac1609_4 	ReceivedBroadcasts 	0
scalar IntersectionExampleScenario.node[2].nic.mac1609_4 	SentPackets 	0
scalar IntersectionExampleScenario.node[2].nic.mac1609_4 	SNIRLostPackets 	0
scalar IntersectionExampleScenario.node[2].nic.mac1609_4 	RXTXLostPackets 	0
scalar IntersectionExampleScenario.node[2].nic.mac1609_4 	TotalLostPackets 	0
scalar IntersectionExampleScenario.node[2].nic.mac1609_4 	DroppedPacketsInMac 	0
scalar IntersectionExampleScenario.node[2].nic.mac1609_4 	TooLittleTime 	0
scalar IntersectionExampleScenario.node[2].nic.mac1609_4 	TimesIntoBackoff 	0
scalar IntersectionExampleScenario.node[2].nic.mac1609_4 	SlotsBackoff 	0
scalar IntersectionExampleScenario.node[2].nic.mac1609_4 	NumInternalContention 	0
scalar IntersectionExampleScenario.node[2].nic.mac1609_4 	totalBusyTime 	0
scalar IntersectionExampleScenario.node[2].veinsmobility 	startTime 	11
scalar IntersectionExampleScenario.node[2].veinsmobility 	totalTime 	77.5
scalar IntersectionExampleScenario.node[2].veinsmobility 	stopTime 	88.75
scalar IntersectionExampleScenario.node[2].veinsmobility 	minSpeed 	0
scalar IntersectionExampleScenario.node[2].veinsmobility 	maxSpeed 	15.375
scalar IntersectionExampleScenario.node[2].veinsmobility 	totalDistance 	561.17266430751
scalar IntersectionExampleScenario.node[2].veinsmobility 	totalCO2Emission 	169.32285198956
scalar IntersectionExampleScenario.node[3].appl 	VehicleRemoved 	0
scalar IntersectionExampleScenario.node[3].appl 	ArrivedAtDest 	1
scalar IntersectionExampleScenario.node[3].appl 	IntersectionEnterTime 	15.25
scalar IntersectionExampleScenario.node[3].appl 	IntersectionExitTime 	74.537215467688
scalar IntersectionExampleScenario.node[3].appl 	NumberOfCollisions 	0
scalar IntersectionExampleScenario.node[3].nic.phy80211p 	busyTime 	0
scalar IntersectionExampleScenario.node[3].nic.mac1609_4 	ReceivedUnicastPackets 	0
scalar IntersectionExampleScenario.node[3].nic.mac1609_4 	ReceivedBroadcasts 	0
scalar IntersectionExampleScenario.node[3].nic.mac1609_4 	SentPackets 	0
scalar IntersectionExampleScenario.node[3].nic.mac1609_4 	SNIRLostPackets 	0
scalar IntersectionExampleScenario.node[3].nic.mac1609_4 	RXTXLostPackets 	0
scalar IntersectionExampleScenario.node[3].nic.mac1609_4 	TotalLostPackets 	0
scalar IntersectionExampleScenario.node[3].nic.mac1609_4 	DroppedPacketsInMac 	0
scalar IntersectionExampleScenario.node[3].nic.mac1609_4 	TooLittleTime 	0
scalar IntersectionExampleScenario.node[3].nic.mac1609_4 	TimesIntoBackoff 	0
scalar IntersectionExampleScenario.node[3].nic.mac1609_4 	SlotsBackoff 	0
scalar IntersectionExampleScenario.node[3].nic.mac1609_4 	NumInternalContention 	0
scalar IntersectionExampleScenario.node[3].nic.mac1609_4 	totalBusyTime 	0
scalar IntersectionExampleScenario.node[3].veinsmobility 	startTime 	15.25
scalar IntersectionExampleScenario.node[3].veinsmobility 	totalTime 	76.25
scalar IntersectionExampleScenario.node[3].veinsmobility 	stopTime 	91.75
scalar IntersectionExampleScenario.node[3].veinsmobility 	minSpeed 	0
scalar IntersectionExampleScenario.node[3].veinsmobility 	maxSpeed 	15.25
scalar IntersectionExampleScenario.node[3].veinsmobility 	totalDistance 	555.59608333118
scalar IntersectionExampleScenario.node[3].veinsmobility 	totalCO2Emission 	167.57734402386
scalar IntersectionExampleScenario.node[4].appl 	VehicleRemoved 	0
scalar IntersectionExampleScenario.node[4].appl 	ArrivedAtDest 	1
scalar IntersectionExampleScenario.node[4].appl 	IntersectionEnterTime 	17.5
scalar IntersectionExampleScenario.node[4].appl 	IntersectionExitTime 	76.582148628309
scalar IntersectionExampleScenario.node[4].appl 	NumberOfCollisions 	0
scalar IntersectionExampleScenario.node[4].nic.phy80211p 	busyTime 	0
scalar IntersectionExampleScenario.node[4].nic.mac1609_4 	ReceivedUnicastPackets 	0
scalar IntersectionExampleScenario.node[4].nic.mac1609_4 	ReceivedBroadcasts 	0
scalar IntersectionExampleScenario.node[4].nic.mac1609_4 	SentPackets 	0
scalar IntersectionExampleScenario.node[4].nic.mac1609_4 	SNIRLostPackets 	0
scalar IntersectionExampleScenario.node[4].nic.mac1609_4 	RXTXLostPackets 	0
scalar IntersectionExampleScenario.node[4].nic.mac1609_4 	TotalLostPackets 	0
scalar IntersectionExampleScenario.node[4].nic.mac1609_4 	DroppedPacketsInMac 	0
scalar IntersectionExampleScenario.node[4].nic.mac1609_4 	TooLittleTime 	0
scalar IntersectionExampleScenario.node[4].nic.mac1609_4 	TimesIntoBackoff 	0
scalar IntersectionExampleScenario.node[4].nic.mac1609_4 	SlotsBackoff 	0
scalar IntersectionExampleScenario.node[4].nic.mac1609_4 	NumInternalContention 	0
scalar IntersectionExampleScenario.node[4].nic.mac1609_4 	totalBusyTime 	0
scalar IntersectionExampleScenario.node[4].veinsmobility 	startTime 	17.5
scalar IntersectionExampleScenario.node[4].veinsmobility 	totalTime 	75
scalar IntersectionExampleScenario.node[4].veinsmobility 	stopTime 	92.75
scalar IntersectionExampleScenario.node[4].veinsmobility 	minSpeed 	0
scalar IntersectionExampleScenario.node[4].veinsmobility 	maxSpeed 	15.663285255432
scalar IntersectionExampleScenario.node[4].veinsmobility 	totalDistance 	571.94876883305
scalar IntersectionExampleScenario.node[4].veinsmobility 	totalCO2Emission 	176.73533421153
scalar IntersectionExampleScenario.node[5].appl 	VehicleRemoved 	0
scalar IntersectionExampleScenario.node[5].appl 	ArrivedAtDest 	1
scalar IntersectionExampleScenario.node[5].appl 	IntersectionEnterTime 	22
scalar IntersectionExampleScenario.node[5].appl 	IntersectionExitTime 	79.601755992015
scalar IntersectionExampleScenario.node[5].appl 	NumberOfCollisions 	0
scalar IntersectionExampleScenario.node[5].nic.phy80211p 	busyTime 	0
scalar IntersectionExampleScenario.node[5].nic.mac1609_4 	ReceivedUnicastPackets 	0
scalar IntersectionExampleScenario.node[5].nic.mac1609_4 	ReceivedBroadcasts 	0
scalar IntersectionExampleScenario.node[5].nic.mac1609_4 	SentPackets 	0
scalar IntersectionExampleScenario.node[5].nic.mac1609_4 	SNIRLostPackets 	0
scalar IntersectionExampleScenario.node[5].nic.mac1609_4 	RXTXLostPackets 	0
scalar IntersectionExampleScenario.node[5].nic.mac1609_4 	TotalLostPackets 	0
scalar IntersectionExampleScenario.node[5].nic.mac1609_4 	DroppedPacketsInMac 	0
scalar IntersectionExampleScenario.node[5].nic.mac1609_4 	TooLittleTime 	0
scalar IntersectionExampleScenario.node[5].nic.mac1609_4 	TimesIntoBackoff 	0
scalar IntersectionExampleScenario.node[5].nic.mac1609_4 	SlotsBackoff 	0
scalar IntersectionExampleScenario.node[5].nic.mac1609_4 	NumInternalContention 	0
scalar IntersectionExampleScenario.node[5].nic.mac1609_4 	totalBusyTime 	0
scalar IntersectionExampleScenario.node[5].veinsmobility 	startTime 	22
scalar IntersectionExampleScenario.node[5].veinsmobility 	totalTime 	74.5
scalar IntersectionExampleScenario.node[5].veinsmobility 	stopTime 	96.75
scalar IntersectionExampleScenario.node[5].veinsmobility 	minSpeed 	0
scalar IntersectionExampleScenario.node[5].veinsmobility 	maxSpeed 	15.02499961853
scalar IntersectionExampleScenario.node[5].veinsmobility 	totalDistance 	562.80457152357
scalar IntersectionExampleScenario.node[5].veinsmobility 	totalCO2Emission 	163.64248688838
scalar IntersectionExampleScenario.node[8].appl 	VehicleRemoved 	0
scalar IntersectionExampleScenario.node[8].appl 	ArrivedAtDest 	1
scalar IntersectionExampleScenario.node[8].appl 	IntersectionEnterTime 	27.75
scalar IntersectionExampleScenario.node[8].appl 	IntersectionExitTime 	81.523959675047
scalar IntersectionExampleScenario.node[8].appl 	NumberOfCollisions 	0
scalar IntersectionExampleScenario.node[8].nic.phy80211p 	busyTime 	0
scalar IntersectionExampleScenario.node[8].nic.mac1609_4 	ReceivedUnicastPackets 	0
scalar IntersectionExampleScenario.node[8].nic.mac1609_4 	ReceivedBroadcasts 	0
scalar IntersectionExampleScenario.node[8].nic.mac1609_4 	SentPackets 	0
scalar IntersectionExampleScenario.node[8].nic.mac1609_4 	SNIRLostPackets 	0
scalar IntersectionExampleScenario.node[8].nic.mac1609_4 	RXTXLostPackets 	0
scalar IntersectionExampleScenario.node[8].nic.mac1609_4 	TotalLostPackets 	0
scalar IntersectionExampleScenario.node[8].nic.mac1609_4 	DroppedPacketsInMac 	0
scalar IntersectionExampleScenario.node[8].nic.mac1609_4 	TooLittleTime 	0
scalar IntersectionExampleScenario.node[8].nic.mac1609_4 	TimesIntoBackoff 	0
scalar IntersectionExampleScenario.node[8].nic.mac1609_4 	SlotsBackoff 	0
scalar IntersectionExampleScenario.node[8].nic.mac1609_4 	NumInternalContention 	0
scalar IntersectionExampleScenario.node[8].nic.mac1609_4 	totalBusyTime 	0
scalar IntersectionExampleScenario.node[8].veinsmobility 	startTime 	27.75
scalar IntersectionExampleScenario.node[8].veinsmobility 	totalTime 	70
scalar IntersectionExampleScenario.node[8].veinsmobility 	stopTime 	98
scalar IntersectionExampleScenario.node[8].veinsmobility 	minSpeed 	0
scalar IntersectionExampleScenario.node[8].veinsmobility 	maxSpeed 	15.99976348877
scalar IntersectionExampleScenario.node[8].veinsmobility 	totalDistance 	545.40831829701
scalar IntersectionExampleScenario.node[8].veinsmobility 	totalCO2Emission 	176.35105472257
scalar IntersectionExampleScenario.node[11].appl 	VehicleRemoved 	0
scalar IntersectionExampleScenario.node[11].appl 	ArrivedAtDest 	1
scalar IntersectionExampleScenario.node[11].appl 	IntersectionEnterTime 	34
scalar IntersectionExampleScenario.node[11].appl 	IntersectionExitTime 	83.569382049347
scalar IntersectionExampleScenario.node[11].appl 	NumberOfCollisions 	0
scalar IntersectionExampleScenario.node[11].nic.phy80211p 	busyTime 	0
scalar IntersectionExampleScenario.node[11].nic.mac1609_4 	ReceivedUnicastPackets 	0
scalar IntersectionExampleScenario.node[11].nic.mac1609_4 	ReceivedBroadcasts 	0
scalar IntersectionExampleScenario.node[11].nic.mac1609_4 	SentPackets 	0
scalar IntersectionExampleScenario.node[11].nic.mac1609_4 	SNIRLostPackets 	0
scalar IntersectionExampleScenario.node[11].nic.mac1609_4 	RXTXLostPackets 	0
scalar IntersectionExampleScenario.node[11].nic.mac1609_4 	TotalLostPackets 	0
scalar IntersectionExampleScenario.node[11].nic.mac1609_4 	DroppedPacketsInMac 	0
scalar IntersectionExampleScenario.node[11].nic.mac1609_4 	TooLittleTime 	0
scalar IntersectionExampleScenario.node[11].nic.mac1609_4 	TimesIntoBackoff 	0
scalar IntersectionExampleScenario.node[11].nic.mac1609_4 	SlotsBackoff 	0
scalar IntersectionExampleScenario.node[11].nic.mac1609_4 	NumInternalContention 	0
scalar IntersectionExampleScenario.node[11].nic.mac1609_4 	totalBusyTime 	0
scalar IntersectionExampleScenario.node[11].veinsmobility 	startTime 	34
scalar IntersectionExampleScenario.node[11].veinsmobility 	totalTime 	65.75
scalar IntersectionExampleScenario.node[11].veinsmobility 	stopTime 	100
scalar IntersectionExampleScenario.node[11].veinsmobility 	minSpeed 	0
scalar IntersectionExampleScenario.node[11].veinsmobility 	maxSpeed 	15.5
scalar IntersectionExampleScenario.node[11].veinsmobility 	totalDistance 	553.25608062744
scalar IntersectionExampleScenario.node[11].veinsmobility 	totalCO2Emission 	155.40179816842
scalar IntersectionExampleScenario.node[18].appl 	VehicleRemoved 	0
scalar IntersectionExampleScenario.node[18].appl 	ArrivedAtDest 	1
scalar IntersectionExampleScenario.node[18].appl 	IntersectionEnterTime 	50.75
scalar IntersectionExampleScenario.node[18].appl 	IntersectionExitTime 	85.573977941705
scalar IntersectionExampleScenario.node[18].appl 	NumberOfCollisions 	0
scalar IntersectionExampleScenario.node[18].nic.phy80211p 	busyTime 	0
scalar IntersectionExampleScenario.node[18].nic.mac1609_4 	ReceivedUnicastPackets 	0
scalar IntersectionExampleScenario.node[18].nic.mac1609_4 	ReceivedBroadcasts 	0
scalar IntersectionExampleScenario.node[18].nic.mac1609_4 	SentPackets 	0
scalar IntersectionExampleScenario.node[18].nic.mac1609_4 	SNIRLostPackets 	0
scalar IntersectionExampleScenario.node[18].nic.mac1609_4 	RXTXLostPackets 	0
scalar IntersectionExampleScenario.node[18].nic.mac1609_4 	TotalLostPackets 	0
scalar IntersectionExampleScenario.node[18].nic.mac1609_4 	DroppedPacketsInMac 	0
scalar IntersectionExampleScenario.node[18].nic.mac1609_4 	TooLittleTime 	0
scalar IntersectionExampleScenario.node[18].nic.mac1609_4 	TimesIntoBackoff 	0
scalar IntersectionExampleScenario.node[18].nic.mac1609_4 	SlotsBackoff 	0
scalar IntersectionExampleScenario.node[18].nic.mac1609_4 	NumInternalContention 	0
scalar IntersectionExampleScenario.node[18].nic.mac1609_4 	totalBusyTime 	0
scalar IntersectionExampleScenario.node[18].veinsmobility 	startTime 	50.75
scalar IntersectionExampleScenario.node[18].veinsmobility 	totalTime 	50.25
scalar IntersectionExampleScenario.node[18].veinsmobility 	stopTime 	101.25
scalar IntersectionExampleScenario.node[18].veinsmobility 	minSpeed 	2.0665187835693
scalar IntersectionExampleScenario.node[18].veinsmobility 	maxSpeed 	16.27499961853
scalar IntersectionExampleScenario.node[18].veinsmobility 	totalDistance 	553.524269104
scalar IntersectionExampleScenario.node[18].veinsmobility 	totalCO2Emission 	149.59782959409
scalar IntersectionExampleScenario.node[21].appl 	VehicleRemoved 	0
scalar IntersectionExampleScenario.node[21].appl 	ArrivedAtDest 	1
scalar IntersectionExampleScenario.node[21].appl 	IntersectionEnterTime 	53.25
scalar IntersectionExampleScenario.node[21].appl 	IntersectionExitTime 	88.047365753067
scalar IntersectionExampleScenario.node[21].appl 	NumberOfCollisions 	0
scalar IntersectionExampleScenario.node[21].nic.phy80211p 	busyTime 	0
scalar IntersectionExampleScenario.node[21].nic.mac1609_4 	ReceivedUnicastPackets 	0
scalar IntersectionExampleScenario.node[21].nic.mac1609_4 	ReceivedBroadcasts 	0
scalar IntersectionExampleScenario.node[21].nic.mac1609_4 	SentPackets 	0
scalar IntersectionExampleScenario.node[21].nic.mac1609_4 	SNIRLostPackets 	0
scalar IntersectionExampleScenario.node[21].nic.mac1609_4 	RXTXLostPackets 	0
scalar IntersectionExampleScenario.node[21].nic.mac1609_4 	TotalLostPackets 	0
scalar IntersectionExampleScenario.node[21].nic.mac1609_4 	DroppedPacketsInMac 	0
scalar IntersectionExampleScenario.node[21].nic.mac1609_4 	TooLittleTime 	0
scalar IntersectionExampleScenario.node[21].nic.mac1609_4 	TimesIntoBackoff 	0
scalar IntersectionExampleScenario.node[21].nic.mac1609_4 	SlotsBackoff 	0
scalar IntersectionExampleScenario.node[21].nic.mac1609_4 	NumInternalContention 	0
scalar IntersectionExampleScenario.node[21].nic.mac1609_4 	totalBusyTime 	0
scalar IntersectionExampleScenario.node[21].veinsmobility 	startTime 	53.25
scalar IntersectionExampleScenario.node[21].veinsmobility 	totalTime 	50.5
scalar IntersectionExampleScenario.node[21].veinsmobility 	stopTime 	104
scalar IntersectionExampleScenario.node[21].veinsmobility 	minSpeed 	1.3925265073776
scalar IntersectionExampleScenario.node[21].veinsmobility 	maxSpeed 	16.5
scalar IntersectionExampleScenario.node[21].veinsmobility 	totalDistance 	558.11605662607
scalar IntersectionExampleScenario.node[21].veinsmobility 	totalCO2Emission 	159.01982564353
scalar IntersectionExampleScenario.node[6].appl 	VehicleRemoved 	0
scalar IntersectionExampleScenario.node[6].appl 	ArrivedAtDest 	1
scalar IntersectionExampleScenario.node[6].appl 	IntersectionEnterTime 	24.75
scalar IntersectionExampleScenario.node[6].appl 	IntersectionExitTime 	89.583325043641
scalar IntersectionExampleScenario.node[6].appl 	NumberOfCollisions 	0
scalar IntersectionExampleScenario.node[6].nic.phy80211p 	busyTime 	0
scalar IntersectionExampleScenario.node[6].nic.mac1609_4 	ReceivedUnicastPackets 	0
scalar IntersectionExampleScenario.node[6].nic.mac1609_4 	ReceivedBroadcasts 	0
scalar IntersectionExampleScenario.node[6].nic.mac1609_4 	SentPackets 	0
scalar IntersectionExampleScenario.node[6].nic.mac1609_4 	SNIRLostPackets 	0
scalar IntersectionExampleScenario.node[6].nic.mac1609_4 	RXTXLostPackets 	0
scalar IntersectionExampleScenario.node[6].nic.mac1609_4 	TotalLostPackets 	0
scalar IntersectionExampleScenario.node[6].nic.mac1609_4 	DroppedPacketsInMac 	0
scalar IntersectionExampleScenario.node[6].nic.mac1609_4 	TooLittleTime 	0
scalar IntersectionExampleScenario.node[6].nic.mac1609_4 	TimesIntoBackoff 	0
scalar IntersectionExampleScenario.node[6].nic.mac1609_4 	SlotsBackoff 	0
scalar IntersectionExampleScenario.node[6].nic.mac1609_4 	NumInternalContention 	0
scalar IntersectionExampleScenario.node[6].nic.mac1609_4 	totalBusyTime 	0
scalar IntersectionExampleScenario.node[6].veinsmobility 	startTime 	24.75
scalar IntersectionExampleScenario.node[6].veinsmobility 	totalTime 	81.5
scalar IntersectionExampleScenario.node[6].veinsmobility 	stopTime 	106.5
scalar IntersectionExampleScenario.node[6].veinsmobility 	minSpeed 	0
scalar IntersectionExampleScenario.node[6].veinsmobility 	maxSpeed 	15.875
scalar IntersectionExampleScenario.node[6].veinsmobility 	totalDistance 	545.6419363156
scalar IntersectionExampleScenario.node[6].veinsmobility 	totalCO2Emission 	173.25699830857
scalar IntersectionExampleScenario.node[7].appl 	VehicleRemoved 	0
scalar IntersectionExampleScenario.node[7].appl 	ArrivedAtDest 	1
scalar IntersectionExampleScenario.node[7].appl 	IntersectionEnterTime 	25.5
scalar IntersectionExampleScenario.node[7].appl 	IntersectionExitTime 	91.286741996271
scalar IntersectionExampleScenario.node[7].appl 	NumberOfCollisions 	0
scalar IntersectionExampleScenario.node[7].nic.phy80211p 	busyTime 	0
scalar IntersectionExampleScenario.node[7].nic.mac1609_4 	ReceivedUnicastPackets 	0
scalar IntersectionExampleScenario.node[7].nic.mac1609_4 	ReceivedBroadcasts 	0
scalar IntersectionExampleScenario.node[7].nic.mac1609_4 	SentPackets 	0
scalar IntersectionExampleScenario.node[7].nic.mac1609_4 	SNIRLostPackets 	0
scalar IntersectionExampleScenario.node[7].nic.mac1609_4 	RXTXLostPackets 	0
scalar IntersectionExampleScenario.node[7].nic.mac1609_4 	TotalLostPackets 	0
scalar IntersectionExampleScenario.node[7].nic.mac1609_4 	DroppedPacketsInMac 	0
scalar IntersectionExampleScenario.node[7].nic.mac1609_4 	TooLittleTime 	0
scalar IntersectionExampleScenario.node[7].nic.mac1609_4 	TimesIntoBackoff 	0
scalar IntersectionExampleScenario.node[7].nic.mac1609_4 	SlotsBackoff 	0
scalar IntersectionExampleScenario.node[7].nic.mac1609_4 	NumInternalContention 	0
scalar IntersectionExampleScenario.node[7].nic.mac1609_4 	totalBusyTime 	0
scalar IntersectionExampleScenario.node[7].veinsmobility 	startTime 	25.5
scalar IntersectionExampleScenario.node[7].veinsmobility 	totalTime 	81.5
scalar IntersectionExampleScenario.node[7].veinsmobility 	stopTime 	107.25
scalar IntersectionExampleScenario.node[7].veinsmobility 	minSpeed 	0
scalar IntersectionExampleScenario.node[7].veinsmobility 	maxSpeed 	16.125
scalar IntersectionExampleScenario.node[7].veinsmobility 	totalDistance 	576.59290313721
scalar IntersectionExampleScenario.node[7].veinsmobility 	totalCO2Emission 	177.82462398428
scalar IntersectionExampleScenario.node[10].appl 	VehicleRemoved 	0
scalar IntersectionExampleScenario.node[10].appl 	ArrivedAtDest 	1
scalar IntersectionExampleScenario.node[10].appl 	IntersectionEnterTime 	32.5
scalar IntersectionExampleScenario.node[10].appl 	IntersectionExitTime 	91.308775270503
scalar IntersectionExampleScenario.node[10].appl 	NumberOfCollisions 	0
scalar IntersectionExampleScenario.node[10].nic.phy80211p 	busyTime 	0
scalar IntersectionExampleScenario.node[10].nic.mac1609_4 	ReceivedUnicastPackets 	0
scalar IntersectionExampleScenario.node[10].nic.mac1609_4 	ReceivedBroadcasts 	0
scalar IntersectionExampleScenario.node[10].nic.mac1609_4 	SentPackets 	0
scalar IntersectionExampleScenario.node[10].nic.mac1609_4 	SNIRLostPackets 	0
scalar IntersectionExampleScenario.node[10].nic.mac1609_4 	RXTXLostPackets 	0
scalar IntersectionExampleScenario.node[10].nic.mac1609_4 	TotalLostPackets 	0
scalar IntersectionExampleScenario.node[10].nic.mac1609_4 	DroppedPacketsInMac 	0
scalar IntersectionExampleScenario.node[10].nic.mac1609_4 	TooLittleTime 	0
scalar IntersectionExampleScenario.node[10].nic.mac1609_4 	TimesIntoBackoff 	0
scalar IntersectionExampleScenario.node[10].nic.mac1609_4 	SlotsBackoff 	0
scalar IntersectionExampleScenario.node[10].nic.mac1609_4 	NumInternalContention 	0
scalar IntersectionExampleScenario.node[10].nic.mac1609_4 	totalBusyTime 	0
scalar IntersectionExampleScenario.node[10].veinsmobility 	startTime 	32.5
scalar IntersectionExampleScenario.node[10].veinsmobility 	totalTime 	74.75
scalar IntersectionExampleScenario.node[10].veinsmobility 	stopTime 	107.5
scalar IntersectionExampleScenario.node[10].veinsmobility 	minSpeed 	0
scalar IntersectionExampleScenario.node[10].veinsmobility 	maxSpeed 	16.652851104736
scalar IntersectionExampleScenario.node[10].veinsmobility 	totalDistance 	549.56294511768
scalar IntersectionExampleScenario.node[10].veinsmobility 	totalCO2Emission 	176.30096587223
scalar IntersectionExampleScenario.node[12].appl 	VehicleRemoved 	0
scalar IntersectionExampleScenario.node[12].appl 	ArrivedAtDest 	1
scalar IntersectionExampleScenario.node[12].appl 	IntersectionEnterTime 	35.25
scalar IntersectionExampleScenario.node[12].appl 	IntersectionExitTime 	91.808720511995
scalar IntersectionExampleScenario.node[12].appl 	NumberOfCollisions 	0
scalar IntersectionExampleScenario.node[12].nic.phy80211p 	busyTime 	0
scalar IntersectionExampleScenario.node[12].nic.mac1609_4 	ReceivedUnicastPackets 	0
scalar IntersectionExampleScenario.node[12].nic.mac1609_4 	ReceivedBroadcasts 	0
scalar IntersectionExampleScenario.node[12].nic.mac1609_4 	SentPackets 	0
scalar IntersectionExampleScenario.node[12].nic.mac1609_4 	SNIRLostPackets 	0
scalar IntersectionExampleScenario.node[12].nic.mac1609_4 	RXTXLostPackets 	0
scalar IntersectionExampleScenario.node[12].nic.mac1609_4 	TotalLostPackets 	0
scalar IntersectionExampleScenario.node[12].nic.mac1609_4 	DroppedPacketsInMac 	0
scalar IntersectionExampleScenario.node[12].nic.mac1609_4 	TooLittleTime 	0
scalar IntersectionExampleScenario.node[12].nic.mac1609_4 	TimesIntoBackoff 	0
scalar IntersectionExampleScenario.node[12].nic.mac1609_4 	SlotsBackoff 	0
scalar IntersectionExampleScenario.node[12].nic.mac1609_4 	NumInternalContention 	0
scalar IntersectionExampleScenario.node[12].nic.mac1609_4 	totalBusyTime 	0
scalar IntersectionExampleScenario.node[12].veinsmobility 	startTime 	35.25
scalar IntersectionExampleScenario.node[12].veinsmobility 	totalTime 	73.25
scalar IntersectionExampleScenario.node[12].veinsmobility 	stopTime 	108.75
scalar IntersectionExampleScenario.node[12].veinsmobility 	minSpeed 	0
scalar IntersectionExampleScenario.node[12].veinsmobility 	maxSpeed 	15.875
scalar IntersectionExampleScenario.node[12].veinsmobility 	totalDistance 	560.10658059885
scalar IntersectionExampleScenario.node[12].veinsmobility 	totalCO2Emission 	165.93510806189
scalar IntersectionExampleScenario.node[14].appl 	VehicleRemoved 	0
scalar IntersectionExampleScenario.node[14].appl 	ArrivedAtDest 	1
scalar IntersectionExampleScenario.node[14].appl 	IntersectionEnterTime 	39.75
scalar IntersectionExampleScenario.node[14].appl 	IntersectionExitTime 	93.810090557759
scalar IntersectionExampleScenario.node[14].appl 	NumberOfCollisions 	0
scalar IntersectionExampleScenario.node[14].nic.phy80211p 	busyTime 	0
scalar IntersectionExampleScenario.node[14].nic.mac1609_4 	ReceivedUnicastPackets 	0
scalar IntersectionExampleScenario.node[14].nic.mac1609_4 	ReceivedBroadcasts 	0
scalar IntersectionExampleScenario.node[14].nic.mac1609_4 	SentPackets 	0
scalar IntersectionExampleScenario.node[14].nic.mac1609_4 	SNIRLostPackets 	0
scalar IntersectionExampleScenario.node[14].nic.mac1609_4 	RXTXLostPackets 	0
scalar IntersectionExampleScenario.node[14].nic.mac1609_4 	TotalLostPackets 	0
scalar IntersectionExampleScenario.node[14].nic.mac1609_4 	DroppedPacketsInMac 	0
scalar IntersectionExampleScenario.node[14].nic.mac1609_4 	TooLittleTime 	0
scalar IntersectionExampleScenario.node[14].nic.mac1609_4 	TimesIntoBackoff 	0
scalar IntersectionExampleScenario.node[14].nic.mac1609_4 	SlotsBackoff 	0
scalar IntersectionExampleScenario.node[14].nic.mac1609_4 	NumInternalContention 	0
scalar IntersectionExampleScenario.node[14].nic.mac1609_4 	totalBusyTime 	0
scalar IntersectionExampleScenario.node[14].veinsmobility 	startTime 	39.75
scalar IntersectionExampleScenario.node[14].veinsmobility 	totalTime 	69.75
scalar IntersectionExampleScenario.node[14].veinsmobility 	stopTime 	109.75
scalar IntersectionExampleScenario.node[14].veinsmobility 	minSpeed 	0
scalar IntersectionExampleScenario.node[14].veinsmobility 	maxSpeed 	16.89999961853
scalar IntersectionExampleScenario.node[14].veinsmobility 	totalDistance 	551.13036559131
scalar IntersectionExampleScenario.node[14].veinsmobility 	totalCO2Emission 	174.36416256194
scalar IntersectionExampleScenario.node[15].appl 	VehicleRemoved 	0
scalar IntersectionExampleScenario.node[15].appl 	ArrivedAtDest 	1
scalar IntersectionExampleScenario.node[15].appl 	IntersectionEnterTime 	41.5
scalar IntersectionExampleScenario.node[15].appl 	IntersectionExitTime 	94.281382448098
scalar IntersectionExampleScenario.node[15].appl 	NumberOfCollisions 	0
scalar IntersectionExampleScenario.node[15].nic.phy80211p 	busyTime 	0
scalar IntersectionExampleScenario.node[15].nic.mac1609_4 	ReceivedUnicastPackets 	0
scalar IntersectionExampleScenario.node[15].nic.mac1609_4 	ReceivedBroadcasts 	0
scalar IntersectionExampleScenario.node[15].nic.mac1609_4 	SentPackets 	0
scalar IntersectionExampleScenario.node[15].nic.mac1609_4 	SNIRLostPackets 	0
scalar IntersectionExampleScenario.node[15].nic.mac1609_4 	RXTXLostPackets 	0
scalar IntersectionExampleScenario.node[15].nic.mac1609_4 	TotalLostPackets 	0
scalar IntersectionExampleScenario.node[15].nic.mac1609_4 	DroppedPacketsInMac 	0
scalar IntersectionExampleScenario.node[15].nic.mac1609_4 	TooLittleTime 	0
scalar IntersectionExampleScenario.node[15].nic.mac1609_4 	TimesIntoBackoff 	0
scalar IntersectionExampleScenario.node[15].nic.mac1609_4 	SlotsBackoff 	0
scalar IntersectionExampleScenario.node[15].nic.mac1609_4 	NumInternalContention 	0
scalar IntersectionExampleScenario.node[15].nic.mac1609_4 	totalBusyTime 	0
scalar IntersectionExampleScenario.node[15].veinsmobility 	startTime 	41.5
scalar IntersectionExampleScenario.node[15].veinsmobility 	totalTime 	68.25
scalar IntersectionExampleScenario.node[15].veinsmobility 	stopTime 	110
scalar IntersectionExampleScenario.node[15].veinsmobility 	minSpeed 	0
scalar IntersectionExampleScenario.node[15].veinsmobility 	maxSpeed 	16.625
scalar IntersectionExampleScenario.node[15].veinsmobility 	totalDistance 	552.42612980948
scalar IntersectionExampleScenario.node[15].veinsmobility 	totalCO2Emission 	167.81713218153
scalar IntersectionExampleScenario.node[17].appl 	VehicleRemoved 	0
scalar IntersectionExampleScenario.node[17].appl 	ArrivedAtDest 	1
scalar IntersectionExampleScenario.node[17].appl 	IntersectionEnterTime 	46.75
scalar IntersectionExampleScenario.node[17].appl 	IntersectionExitTime 	95.557749176834
scalar IntersectionExampleScenario.node[17].appl 	NumberOfCollisions 	0
scalar IntersectionExampleScenario.node[17].nic.phy80211p 	busyTime 	0
scalar IntersectionExampleScenario.node[17].nic.mac1609_4 	ReceivedUnicastPackets 	0
scalar IntersectionExampleScenario.node[17].nic.mac1609_4 	ReceivedBroadcasts 	0
scalar IntersectionExampleScenario.node[17].nic.mac1609_4 	SentPackets 	0
scalar IntersectionExampleScenario.node[17].nic.mac1609_4 	SNIRLostPackets 	0
scalar IntersectionExampleScenario.node[17].nic.mac1609_4 	RXTXLostPackets 	0
scalar IntersectionExampleScenario.node[17].nic.mac1609_4 	TotalLostPackets 	0
scalar IntersectionExampleScenario.node[17].nic.mac1609_4 	DroppedPacketsInMac 	0
scalar IntersectionExampleScenario.node[17].nic.mac1609_4 	TooLittleTime 	0
scalar IntersectionExampleScenario.node[17].nic.mac1609_4 	TimesIntoBackoff 	0
scalar IntersectionExampleScenario.node[17].nic.mac1609_4 	SlotsBackoff 	0
scalar IntersectionExampleScenario.node[17].nic.mac1609_4 	NumInternalContention 	0
scalar IntersectionExampleScenario.node[17].nic.mac1609_4 	totalBusyTime 	0
scalar IntersectionExampleScenario.node[17].veinsmobility 	startTime 	46.75
scalar IntersectionExampleScenario.node[17].veinsmobility 	totalTime 	64.5
scalar IntersectionExampleScenario.node[17].veinsmobility 	stopTime 	111.5
scalar IntersectionExampleScenario.node[17].veinsmobility 	minSpeed 	0
scalar IntersectionExampleScenario.node[17].veinsmobility 	maxSpeed 	16.89999961853
scalar IntersectionExampleScenario.node[17].veinsmobility 	totalDistance 	543.8333474743
scalar IntersectionExampleScenario.node[17].veinsmobility 	totalCO2Emission 	162.02044150522
scalar IntersectionExampleScenario.node[19].appl 	VehicleRemoved 	0
scalar IntersectionExampleScenario.node[19].appl 	ArrivedAtDest 	1
scalar IntersectionExampleScenario.node[19].appl 	IntersectionEnterTime 	51.25
scalar IntersectionExampleScenario.node[19].appl 	IntersectionExitTime 	96.780376014911
scalar IntersectionExampleScenario.node[19].appl 	NumberOfCollisions 	0
scalar IntersectionExampleScenario.node[19].nic.phy80211p 	busyTime 	0
scalar IntersectionExampleScenario.node[19].nic.mac1609_4 	ReceivedUnicastPackets 	0
scalar IntersectionExampleScenario.node[19].nic.mac1609_4 	ReceivedBroadcasts 	0
scalar IntersectionExampleScenario.node[19].nic.mac1609_4 	SentPackets 	0
scalar IntersectionExampleScenario.node[19].nic.mac1609_4 	SNIRLostPackets 	0
scalar IntersectionExampleScenario.node[19].nic.mac1609_4 	RXTXLostPackets 	0
scalar IntersectionExampleScenario.node[19].nic.mac1609_4 	TotalLostPackets 	0
scalar IntersectionExampleScenario.node[19].nic.mac1609_4 	DroppedPacketsInMac 	0
scalar IntersectionExampleScenario.node[19].nic.mac1609_4 	TooLittleTime 	0
scalar IntersectionExampleScenario.node[19].nic.mac1609_4 	TimesIntoBackoff 	0
scalar IntersectionExampleScenario.node[19].nic.mac1609_4 	SlotsBackoff 	0
scalar IntersectionExampleScenario.node[19].nic.mac1609_4 	NumInternalContention 	0
scalar IntersectionExampleScenario.node[19].nic.mac1609_4 	totalBusyTime 	0
scalar IntersectionExampleScenario.node[19].veinsmobility 	startTime 	51.25
scalar IntersectionExampleScenario.node[19].veinsmobility 	totalTime 	61.5
scalar IntersectionExampleScenario.node[19].veinsmobility 	stopTime 	113
scalar IntersectionExampleScenario.node[19].veinsmobility 	minSpeed 	0
scalar IntersectionExampleScenario.node[19].veinsmobility 	maxSpeed 	16.89999961853
scalar IntersectionExampleScenario.node[19].veinsmobility 	totalDistance 	551.72637953014
scalar IntersectionExampleScenario.node[19].veinsmobility 	totalCO2Emission 	161.81972635922
scalar IntersectionExampleScenario.node[25].appl 	VehicleRemoved 	0
scalar IntersectionExampleScenario.node[25].appl 	ArrivedAtDest 	1
scalar IntersectionExampleScenario.node[25].appl 	IntersectionEnterTime 	55.75
scalar IntersectionExampleScenario.node[25].appl 	IntersectionExitTime 	97.309503309225
scalar IntersectionExampleScenario.node[25].appl 	NumberOfCollisions 	0
scalar IntersectionExampleScenario.node[25].nic.phy80211p 	busyTime 	0
scalar IntersectionExampleScenario.node[25].nic.mac1609_4 	ReceivedUnicastPackets 	0
scalar IntersectionExampleScenario.node[25].nic.mac1609_4 	ReceivedBroadcasts 	0
scalar IntersectionExampleScenario.node[25].nic.mac1609_4 	SentPackets 	0
scalar IntersectionExampleScenario.node[25].nic.mac1609_4 	SNIRLostPackets 	0
scalar IntersectionExampleScenario.node[25].nic.mac1609_4 	RXTXLostPackets 	0
scalar IntersectionExampleScenario.node[25].nic.mac1609_4 	TotalLostPackets 	0
scalar IntersectionExampleScenario.node[25].nic.mac1609_4 	DroppedPacketsInMac 	0
scalar IntersectionExampleScenario.node[25].nic.mac1609_4 	TooLittleTime 	0
scalar IntersectionExampleScenario.node[25].nic.mac1609_4 	TimesIntoBackoff 	0
scalar IntersectionExampleScenario.node[25].nic.mac1609_4 	SlotsBackoff 	0
scalar IntersectionExampleScenario.node[25].nic.mac1609_4 	NumInternalContention 	0
scalar IntersectionExampleScenario.node[25].nic.mac1609_4 	totalBusyTime 	0
scalar IntersectionExampleScenario.node[25].veinsmobility 	startTime 	55.75
scalar IntersectionExampleScenario.node[25].veinsmobility 	totalTime 	57.25
scalar IntersectionExampleScenario.node[25].veinsmobility 	stopTime 	113.25
scalar IntersectionExampleScenario.node[25].veinsmobility 	minSpeed 	0
scalar IntersectionExampleScenario.node[25].veinsmobility 	maxSpeed 	15.64999961853
scalar IntersectionExampleScenario.node[25].veinsmobility 	totalDistance 	520.22151184082
scalar IntersectionExampleScenario.node[25].veinsmobility 	totalCO2Emission 	141.19931035528
scalar IntersectionExampleScenario.node[24].appl 	VehicleRemoved 	0
scalar IntersectionExampleScenario.node[24].appl 	ArrivedAtDest 	1
scalar IntersectionExampleScenario.node[24].appl 	IntersectionEnterTime 	54.5
scalar IntersectionExampleScenario.node[24].appl 	IntersectionExitTime 	98.600441779185
scalar IntersectionExampleScenario.node[24].appl 	NumberOfCollisions 	0
scalar IntersectionExampleScenario.node[24].nic.phy80211p 	busyTime 	0
scalar IntersectionExampleScenario.node[24].nic.mac1609_4 	ReceivedUnicastPackets 	0
scalar IntersectionExampleScenario.node[24].nic.mac1609_4 	ReceivedBroadcasts 	0
scalar IntersectionExampleScenario.node[24].nic.mac1609_4 	SentPackets 	0
scalar IntersectionExampleScenario.node[24].nic.mac1609_4 	SNIRLostPackets 	0
scalar IntersectionExampleScenario.node[24].nic.mac1609_4 	RXTXLostPackets 	0
scalar IntersectionExampleScenario.node[24].nic.mac1609_4 	TotalLostPackets 	0
scalar IntersectionExampleScenario.node[24].nic.mac1609_4 	DroppedPacketsInMac 	0
scalar IntersectionExampleScenario.node[24].nic.mac1609_4 	TooLittleTime 	0
scalar IntersectionExampleScenario.node[24].nic.mac1609_4 	TimesIntoBackoff 	0
scalar IntersectionExampleScenario.node[24].nic.mac1609_4 	SlotsBackoff 	0
scalar IntersectionExampleScenario.node[24].nic.mac1609_4 	NumInternalContention 	0
scalar IntersectionExampleScenario.node[24].nic.mac1609_4 	totalBusyTime 	0
scalar IntersectionExampleScenario.node[24].veinsmobility 	startTime 	54.5
scalar IntersectionExampleScenario.node[24].veinsmobility 	totalTime 	60.75
scalar IntersectionExampleScenario.node[24].veinsmobility 	stopTime 	115.5
scalar IntersectionExampleScenario.node[24].veinsmobility 	minSpeed 	0
scalar IntersectionExampleScenario.node[24].veinsmobility 	maxSpeed 	15.64999961853
scalar IntersectionExampleScenario.node[24].veinsmobility 	totalDistance 	555.8420535514
scalar IntersectionExampleScenario.node[24].veinsmobility 	totalCO2Emission 	155.87699205185
scalar IntersectionExampleScenario.node[22].appl 	VehicleRemoved 	0
scalar IntersectionExampleScenario.node[22].appl 	ArrivedAtDest 	1
scalar IntersectionExampleScenario.node[22].appl 	IntersectionEnterTime 	54
scalar IntersectionExampleScenario.node[22].appl 	IntersectionExitTime 	100.29714802452
scalar IntersectionExampleScenario.node[22].appl 	NumberOfCollisions 	0
scalar IntersectionExampleScenario.node[22].nic.phy80211p 	busyTime 	0
scalar IntersectionExampleScenario.node[22].nic.mac1609_4 	ReceivedUnicastPackets 	0
scalar IntersectionExampleScenario.node[22].nic.mac1609_4 	ReceivedBroadcasts 	0
scalar IntersectionExampleScenario.node[22].nic.mac1609_4 	SentPackets 	0
scalar IntersectionExampleScenario.node[22].nic.mac1609_4 	SNIRLostPackets 	0
scalar IntersectionExampleScenario.node[22].nic.mac1609_4 	RXTXLostPackets 	0
scalar IntersectionExampleScenario.node[22].nic.mac1609_4 	TotalLostPackets 	0
scalar IntersectionExampleScenario.node[22].nic.mac1609_4 	DroppedPacketsInMac 	0
scalar IntersectionExampleScenario.node[22].nic.mac1609_4 	TooLittleTime 	0
scalar IntersectionExampleScenario.node[22].nic.mac1609_4 	TimesIntoBackoff 	0
scalar IntersectionExampleScenario.node[22].nic.mac1609_4 	SlotsBackoff 	0
scalar IntersectionExampleScenario.node[22].nic.mac1609_4 	NumInternalContention 	0
scalar IntersectionExampleScenario.node[22].nic.mac1609_4 	totalBusyTime 	0
scalar IntersectionExampleScenario.node[22].veinsmobility 	startTime 	54
scalar IntersectionExampleScenario.node[22].veinsmobility 	totalTime 	63.25
scalar IntersectionExampleScenario.node[22].veinsmobility 	stopTime 	117.5
scalar IntersectionExampleScenario.node[22].veinsmobility 	minSpeed 	0
scalar IntersectionExampleScenario.node[22].veinsmobility 	maxSpeed 	15.25
scalar IntersectionExampleScenario.node[22].veinsmobility 	totalDistance 	543.65594035632
scalar IntersectionExampleScenario.node[22].veinsmobility 	totalCO2Emission 	160.70746092076
scalar IntersectionExampleScenario.node[23].appl 	VehicleRemoved 	0
scalar IntersectionExampleScenario.node[23].appl 	ArrivedAtDest 	1
scalar IntersectionExampleScenario.node[23].appl 	IntersectionEnterTime 	54.5
scalar IntersectionExampleScenario.node[23].appl 	IntersectionExitTime 	101.7745556182
scalar IntersectionExampleScenario.node[23].appl 	NumberOfCollisions 	0
scalar IntersectionExampleScenario.node[23].nic.phy80211p 	busyTime 	0
scalar IntersectionExampleScenario.node[23].nic.mac1609_4 	ReceivedUnicastPackets 	0
scalar IntersectionExampleScenario.node[23].nic.mac1609_4 	ReceivedBroadcasts 	0
scalar IntersectionExampleScenario.node[23].nic.mac1609_4 	SentPackets 	0
scalar IntersectionExampleScenario.node[23].nic.mac1609_4 	SNIRLostPackets 	0
scalar IntersectionExampleScenario.node[23].nic.mac1609_4 	RXTXLostPackets 	0
scalar IntersectionExampleScenario.node[23].nic.mac1609_4 	TotalLostPackets 	0
scalar IntersectionExampleScenario.node[23].nic.mac1609_4 	DroppedPacketsInMac 	0
scalar IntersectionExampleScenario.node[23].nic.mac1609_4 	TooLittleTime 	0
scalar IntersectionExampleScenario.node[23].nic.mac1609_4 	TimesIntoBackoff 	0
scalar IntersectionExampleScenario.node[23].nic.mac1609_4 	SlotsBackoff 	0
scalar IntersectionExampleScenario.node[23].nic.mac1609_4 	NumInternalContention 	0
scalar IntersectionExampleScenario.node[23].nic.mac1609_4 	totalBusyTime 	0
scalar IntersectionExampleScenario.node[23].veinsmobility 	startTime 	54.5
scalar IntersectionExampleScenario.node[23].veinsmobility 	totalTime 	62.75
scalar IntersectionExampleScenario.node[23].veinsmobility 	stopTime 	117.5
scalar IntersectionExampleScenario.node[23].veinsmobility 	minSpeed 	0
scalar IntersectionExampleScenario.node[23].veinsmobility 	maxSpeed 	15.718064308167
scalar IntersectionExampleScenario.node[23].veinsmobility 	totalDistance 	574.97975158691
scalar IntersectionExampleScenario.node[23].veinsmobility 	totalCO2Emission 	163.55756680825
scalar IntersectionExampleScenario.node[27].appl 	VehicleRemoved 	0
scalar IntersectionExampleScenario.node[27].appl 	ArrivedAtDest 	1
scalar IntersectionExampleScenario.node[27].appl 	IntersectionEnterTime 	59.75
scalar IntersectionExampleScenario.node[27].appl 	IntersectionExitTime 	101.03204415712
scalar IntersectionExampleScenario.node[27].appl 	NumberOfCollisions 	0
scalar IntersectionExampleScenario.node[27].nic.phy80211p 	busyTime 	0
scalar IntersectionExampleScenario.node[27].nic.mac1609_4 	ReceivedUnicastPackets 	0
scalar IntersectionExampleScenario.node[27].nic.mac1609_4 	ReceivedBroadcasts 	0
scalar IntersectionExampleScenario.node[27].nic.mac1609_4 	SentPackets 	0
scalar IntersectionExampleScenario.node[27].nic.mac1609_4 	SNIRLostPackets 	0
scalar IntersectionExampleScenario.node[27].nic.mac1609_4 	RXTXLostPackets 	0
scalar IntersectionExampleScenario.node[27].nic.mac1609_4 	TotalLostPackets 	0
scalar IntersectionExampleScenario.node[27].nic.mac1609_4 	DroppedPacketsInMac 	0
scalar IntersectionExampleScenario.node[27].nic.mac1609_4 	TooLittleTime 	0
scalar IntersectionExampleScenario.node[27].nic.mac1609_4 	TimesIntoBackoff 	0
scalar IntersectionExampleScenario.node[27].nic.mac1609_4 	SlotsBackoff 	0
scalar IntersectionExampleScenario.node[27].nic.mac1609_4 	NumInternalContention 	0
scalar IntersectionExampleScenario.node[27].nic.mac1609_4 	totalBusyTime 	0
scalar IntersectionExampleScenario.node[27].veinsmobility 	startTime 	59.75
scalar IntersectionExampleScenario.node[27].veinsmobility 	totalTime 	58
scalar IntersectionExampleScenario.node[27].veinsmobility 	stopTime 	118
scalar IntersectionExampleScenario.node[27].veinsmobility 	minSpeed 	0
scalar IntersectionExampleScenario.node[27].veinsmobility 	maxSpeed 	15.356413841248
scalar IntersectionExampleScenario.node[27].veinsmobility 	totalDistance 	544.58810493207
scalar IntersectionExampleScenario.node[27].veinsmobility 	totalCO2Emission 	151.74887974252
scalar IntersectionExampleScenario.node[36].appl 	VehicleRemoved 	0
scalar IntersectionExampleScenario.node[36].appl 	ArrivedAtDest 	1
scalar IntersectionExampleScenario.node[36].appl 	IntersectionEnterTime 	74.5
scalar IntersectionExampleScenario.node[36].appl 	IntersectionExitTime 	103.36984096758
scalar IntersectionExampleScenario.node[36].appl 	NumberOfCollisions 	0
scalar IntersectionExampleScenario.node[36].nic.phy80211p 	busyTime 	0
scalar IntersectionExampleScenario.node[36].nic.mac1609_4 	ReceivedUnicastPackets 	0
scalar IntersectionExampleScenario.node[36].nic.mac1609_4 	ReceivedBroadcasts 	0
scalar IntersectionExampleScenario.node[36].nic.mac1609_4 	SentPackets 	0
scalar IntersectionExampleScenario.node[36].nic.mac1609_4 	SNIRLostPackets 	0
scalar IntersectionExampleScenario.node[36].nic.mac1609_4 	RXTXLostPackets 	0
scalar IntersectionExampleScenario.node[36].nic.mac1609_4 	TotalLostPackets 	0
scalar IntersectionExampleScenario.node[36].nic.mac1609_4 	DroppedPacketsInMac 	0
scalar IntersectionExampleScenario.node[36].nic.mac1609_4 	TooLittleTime 	0
scalar IntersectionExampleScenario.node[36].nic.mac1609_4 	TimesIntoBackoff 	0
scalar IntersectionExampleScenario.node[36].nic.mac1609_4 	SlotsBackoff 	0
scalar IntersectionExampleScenario.node[36].nic.mac1609_4 	NumInternalContention 	0
scalar IntersectionExampleScenario.node[36].nic.mac1609_4 	totalBusyTime 	0
scalar IntersectionExampleScenario.node[36].veinsmobility 	startTime 	74.5
scalar IntersectionExampleScenario.node[36].veinsmobility 	totalTime 	45.5
scalar IntersectionExampleScenario.node[36].veinsmobility 	stopTime 	120.25
scalar IntersectionExampleScenario.node[36].veinsmobility 	minSpeed 	5.6500000953674
scalar IntersectionExampleScenario.node[36].veinsmobility 	maxSpeed 	15.64999961853
scalar IntersectionExampleScenario.node[36].veinsmobility 	totalDistance 	545.0096532112
scalar IntersectionExampleScenario.node[36].veinsmobility 	totalCO2Emission 	137.13201609181
scalar IntersectionExampleScenario.node[28].appl 	VehicleRemoved 	0
scalar IntersectionExampleScenario.node[28].appl 	ArrivedAtDest 	1
scalar IntersectionExampleScenario.node[28].appl 	IntersectionEnterTime 	63.5
scalar IntersectionExampleScenario.node[28].appl 	IntersectionExitTime 	104.10838665414
scalar IntersectionExampleScenario.node[28].appl 	NumberOfCollisions 	0
scalar IntersectionExampleScenario.node[28].nic.phy80211p 	busyTime 	0
scalar IntersectionExampleScenario.node[28].nic.mac1609_4 	ReceivedUnicastPackets 	0
scalar IntersectionExampleScenario.node[28].nic.mac1609_4 	ReceivedBroadcasts 	0
scalar IntersectionExampleScenario.node[28].nic.mac1609_4 	SentPackets 	0
scalar IntersectionExampleScenario.node[28].nic.mac1609_4 	SNIRLostPackets 	0
scalar IntersectionExampleScenario.node[28].nic.mac1609_4 	RXTXLostPackets 	0
scalar IntersectionExampleScenario.node[28].nic.mac1609_4 	TotalLostPackets 	0
scalar IntersectionExampleScenario.node[28].nic.mac1609_4 	DroppedPacketsInMac 	0
scalar IntersectionExampleScenario.node[28].nic.mac1609_4 	TooLittleTime 	0
scalar IntersectionExampleScenario.node[28].nic.mac1609_4 	TimesIntoBackoff 	0
scalar IntersectionExampleScenario.node[28].nic.mac1609_4 	SlotsBackoff 	0
scalar IntersectionExampleScenario.node[28].nic.mac1609_4 	NumInternalContention 	0
scalar IntersectionExampleScenario.node[28].nic.mac1609_4 	totalBusyTime 	0
scalar IntersectionExampleScenario.node[28].veinsmobility 	startTime 	63.5
scalar IntersectionExampleScenario.node[28].veinsmobility 	totalTime 	57
scalar IntersectionExampleScenario.node[28].veinsmobility 	stopTime 	120.75
scalar IntersectionExampleScenario.node[28].veinsmobility 	minSpeed 	0
scalar IntersectionExampleScenario.node[28].veinsmobility 	maxSpeed 	15.671501159668
scalar IntersectionExampleScenario.node[28].veinsmobility 	totalDistance 	546.37395735767
scalar IntersectionExampleScenario.node[28].veinsmobility 	totalCO2Emission 	151.66509397707
scalar IntersectionExampleScenario.node[37].appl 	VehicleRemoved 	0
scalar IntersectionExampleScenario.node[37].appl 	ArrivedAtDest 	1
scalar IntersectionExampleScenario.node[37].appl 	IntersectionEnterTime 	75.5
scalar IntersectionExampleScenario.node[37].appl 	IntersectionExitTime 	105.8076380032
scalar IntersectionExampleScenario.node[37].appl 	NumberOfCollisions 	0
scalar IntersectionExampleScenario.node[37].nic.phy80211p 	busyTime 	0
scalar IntersectionExampleScenario.node[37].nic.mac1609_4 	ReceivedUnicastPackets 	0
scalar IntersectionExampleScenario.node[37].nic.mac1609_4 	ReceivedBroadcasts 	0
scalar IntersectionExampleScenario.node[37].nic.mac1609_4 	SentPackets 	0
scalar IntersectionExampleScenario.node[37].nic.mac1609_4 	SNIRLostPackets 	0
scalar IntersectionExampleScenario.node[37].nic.mac1609_4 	RXTXLostPackets 	0
scalar IntersectionExampleScenario.node[37].nic.mac1609_4 	TotalLostPackets 	0
scalar IntersectionExampleScenario.node[37].nic.mac1609_4 	DroppedPacketsInMac 	0
scalar IntersectionExampleScenario.node[37].nic.mac1609_4 	TooLittleTime 	0
scalar IntersectionExampleScenario.node[37].nic.mac1609_4 	TimesIntoBackoff 	0
scalar IntersectionExampleScenario.node[37].nic.mac1609_4 	SlotsBackoff 	0
scalar IntersectionExampleScenario.node[37].nic.mac1609_4 	NumInternalContention 	0
scalar IntersectionExampleScenario.node[37].nic.mac1609_4 	totalBusyTime 	0
scalar IntersectionExampleScenario.node[37].veinsmobility 	startTime 	75.5
scalar IntersectionExampleScenario.node[37].veinsmobility 	totalTime 	46.75
scalar IntersectionExampleScenario.node[37].veinsmobility 	stopTime 	122.5
scalar IntersectionExampleScenario.node[37].veinsmobility 	minSpeed 	5.6500000953674
scalar IntersectionExampleScenario.node[37].veinsmobility 	maxSpeed 	15.673672676086
scalar IntersectionExampleScenario.node[37].veinsmobility 	totalDistance 	574.15321766579
scalar IntersectionExampleScenario.node[37].veinsmobility 	totalCO2Emission 	143.2570059342
scalar IntersectionExampleScenario.node[32].appl 	VehicleRemoved 	0
scalar IntersectionExampleScenario.node[32].appl 	ArrivedAtDest 	1
scalar IntersectionExampleScenario.node[32].appl 	IntersectionEnterTime 	68.75
scalar IntersectionExampleScenario.node[32].appl 	IntersectionExitTime 	106.8355013692
scalar IntersectionExampleScenario.node[32].appl 	NumberOfCollisions 	0
scalar IntersectionExampleScenario.node[32].nic.phy80211p 	busyTime 	0
scalar IntersectionExampleScenario.node[32].nic.mac1609_4 	ReceivedUnicastPackets 	0
scalar IntersectionExampleScenario.node[32].nic.mac1609_4 	ReceivedBroadcasts 	0
scalar IntersectionExampleScenario.node[32].nic.mac1609_4 	SentPackets 	0
scalar IntersectionExampleScenario.node[32].nic.mac1609_4 	SNIRLostPackets 	0
scalar IntersectionExampleScenario.node[32].nic.mac1609_4 	RXTXLostPackets 	0
scalar IntersectionExampleScenario.node[32].nic.mac1609_4 	TotalLostPackets 	0
scalar IntersectionExampleScenario.node[32].nic.mac1609_4 	DroppedPacketsInMac 	0
scalar IntersectionExampleScenario.node[32].nic.mac1609_4 	TooLittleTime 	0
scalar IntersectionExampleScenario.node[32].nic.mac1609_4 	TimesIntoBackoff 	0
scalar IntersectionExampleScenario.node[32].nic.mac1609_4 	SlotsBackoff 	0
scalar IntersectionExampleScenario.node[32].nic.mac1609_4 	NumInternalContention 	0
scalar IntersectionExampleScenario.node[32].nic.mac1609_4 	totalBusyTime 	0
scalar IntersectionExampleScenario.node[32].veinsmobility 	startTime 	68.75
scalar IntersectionExampleScenario.node[32].veinsmobility 	totalTime 	55.75
scalar IntersectionExampleScenario.node[32].veinsmobility 	stopTime 	124.75
scalar IntersectionExampleScenario.node[32].veinsmobility 	minSpeed 	0
scalar IntersectionExampleScenario.node[32].veinsmobility 	maxSpeed 	15.131397247314
scalar IntersectionExampleScenario.node[32].veinsmobility 	totalDistance 	512.03265274416
scalar IntersectionExampleScenario.node[32].veinsmobility 	totalCO2Emission 	141.63467559071
scalar IntersectionExampleScenario.node[38].appl 	VehicleRemoved 	0
scalar IntersectionExampleScenario.node[38].appl 	ArrivedAtDest 	1
scalar IntersectionExampleScenario.node[38].appl 	IntersectionEnterTime 	79.25
scalar IntersectionExampleScenario.node[38].appl 	IntersectionExitTime 	107.53275152453
scalar IntersectionExampleScenario.node[38].appl 	NumberOfCollisions 	0
scalar IntersectionExampleScenario.node[38].nic.phy80211p 	busyTime 	0
scalar IntersectionExampleScenario.node[38].nic.mac1609_4 	ReceivedUnicastPackets 	0
scalar IntersectionExampleScenario.node[38].nic.mac1609_4 	ReceivedBroadcasts 	0
scalar IntersectionExampleScenario.node[38].nic.mac1609_4 	SentPackets 	0
scalar IntersectionExampleScenario.node[38].nic.mac1609_4 	SNIRLostPackets 	0
scalar IntersectionExampleScenario.node[38].nic.mac1609_4 	RXTXLostPackets 	0
scalar IntersectionExampleScenario.node[38].nic.mac1609_4 	TotalLostPackets 	0
scalar IntersectionExampleScenario.node[38].nic.mac1609_4 	DroppedPacketsInMac 	0
scalar IntersectionExampleScenario.node[38].nic.mac1609_4 	TooLittleTime 	0
scalar IntersectionExampleScenario.node[38].nic.mac1609_4 	TimesIntoBackoff 	0
scalar IntersectionExampleScenario.node[38].nic.mac1609_4 	SlotsBackoff 	0
scalar IntersectionExampleScenario.node[38].nic.mac1609_4 	NumInternalContention 	0
scalar IntersectionExampleScenario.node[38].nic.mac1609_4 	totalBusyTime 	0
scalar IntersectionExampleScenario.node[38].veinsmobility 	startTime 	79.25
scalar IntersectionExampleScenario.node[38].veinsmobility 	totalTime 	45.75
scalar IntersectionExampleScenario.node[38].veinsmobility 	stopTime 	125.25
scalar IntersectionExampleScenario.node[38].veinsmobility 	minSpeed 	5.6500000953674
scalar IntersectionExampleScenario.node[38].veinsmobility 	maxSpeed 	15.02499961853
scalar IntersectionExampleScenario.node[38].veinsmobility 	totalDistance 	565.20397824092
scalar IntersectionExampleScenario.node[38].veinsmobility 	totalCO2Emission 	125.58848816594
scalar IntersectionExampleScenario.node[29].appl 	VehicleRemoved 	0
scalar IntersectionExampleScenario.node[29].appl 	ArrivedAtDest 	1
scalar IntersectionExampleScenario.node[29].appl 	IntersectionEnterTime 	64.75
scalar IntersectionExampleScenario.node[29].appl 	IntersectionExitTime 	108.81065675392
scalar IntersectionExampleScenario.node[29].appl 	NumberOfCollisions 	0
scalar IntersectionExampleScenario.node[29].nic.phy80211p 	busyTime 	0
scalar IntersectionExampleScenario.node[29].nic.mac1609_4 	ReceivedUnicastPackets 	0
scalar IntersectionExampleScenario.node[29].nic.mac1609_4 	ReceivedBroadcasts 	0
scalar IntersectionExampleScenario.node[29].nic.mac1609_4 	SentPackets 	0
scalar IntersectionExampleScenario.node[29].nic.mac1609_4 	SNIRLostPackets 	0
scalar IntersectionExampleScenario.node[29].nic.mac1609_4 	RXTXLostPackets 	0
scalar IntersectionExampleScenario.node[29].nic.mac1609_4 	TotalLostPackets 	0
scalar IntersectionExampleScenario.node[29].nic.mac1609_4 	DroppedPacketsInMac 	0
scalar IntersectionExampleScenario.node[29].nic.mac1609_4 	TooLittleTime 	0
scalar IntersectionExampleScenario.node[29].nic.mac1609_4 	TimesIntoBackoff 	0
scalar IntersectionExampleScenario.node[29].nic.mac1609_4 	SlotsBackoff 	0
scalar IntersectionExampleScenario.node[29].nic.mac1609_4 	NumInternalContention 	0
scalar IntersectionExampleScenario.node[29].nic.mac1609_4 	totalBusyTime 	0
scalar IntersectionExampleScenario.node[29].veinsmobility 	startTime 	64.75
scalar IntersectionExampleScenario.node[29].veinsmobility 	totalTime 	61.25
scalar IntersectionExampleScenario.node[29].veinsmobility 	stopTime 	126.25
scalar IntersectionExampleScenario.node[29].veinsmobility 	minSpeed 	0
scalar IntersectionExampleScenario.node[29].veinsmobility 	maxSpeed 	15.018941879272
scalar IntersectionExampleScenario.node[29].veinsmobility 	totalDistance 	564.74367000882
scalar IntersectionExampleScenario.node[29].veinsmobility 	totalCO2Emission 	173.16453052091
scalar IntersectionExampleScenario.node[30].appl 	VehicleRemoved 	0
scalar IntersectionExampleScenario.node[30].appl 	ArrivedAtDest 	1
scalar IntersectionExampleScenario.node[30].appl 	IntersectionEnterTime 	67.25
scalar IntersectionExampleScenario.node[30].appl 	IntersectionExitTime 	110.36663002096
scalar IntersectionExampleScenario.node[30].appl 	NumberOfCollisions 	0
scalar IntersectionExampleScenario.node[30].nic.phy80211p 	busyTime 	0
scalar IntersectionExampleScenario.node[30].nic.mac1609_4 	ReceivedUnicastPackets 	0
scalar IntersectionExampleScenario.node[30].nic.mac1609_4 	ReceivedBroadcasts 	0
scalar IntersectionExampleScenario.node[30].nic.mac1609_4 	SentPackets 	0
scalar IntersectionExampleScenario.node[30].nic.mac1609_4 	SNIRLostPackets 	0
scalar IntersectionExampleScenario.node[30].nic.mac1609_4 	RXTXLostPackets 	0
scalar IntersectionExampleScenario.node[30].nic.mac1609_4 	TotalLostPackets 	0
scalar IntersectionExampleScenario.node[30].nic.mac1609_4 	DroppedPacketsInMac 	0
scalar IntersectionExampleScenario.node[30].nic.mac1609_4 	TooLittleTime 	0
scalar IntersectionExampleScenario.node[30].nic.mac1609_4 	TimesIntoBackoff 	0
scalar IntersectionExampleScenario.node[30].nic.mac1609_4 	SlotsBackoff 	0
scalar IntersectionExampleScenario.node[30].nic.mac1609_4 	NumInternalContention 	0
scalar IntersectionExampleScenario.node[30].nic.mac1609_4 	totalBusyTime 	0
scalar IntersectionExampleScenario.node[30].veinsmobility 	startTime 	67.25
scalar IntersectionExampleScenario.node[30].veinsmobility 	totalTime 	59
scalar IntersectionExampleScenario.node[30].veinsmobility 	stopTime 	126.5
scalar IntersectionExampleScenario.node[30].veinsmobility 	minSpeed 	0
scalar IntersectionExampleScenario.node[30].veinsmobility 	maxSpeed 	15.5
scalar IntersectionExampleScenario.node[30].veinsmobility 	totalDistance 	579.19194030762
scalar IntersectionExampleScenario.node[30].veinsmobility 	totalCO2Emission 	160.14328482949
scalar IntersectionExampleScenario.node[33].appl 	VehicleRemoved 	0
scalar IntersectionExampleScenario.node[33].appl 	ArrivedAtDest 	1
scalar IntersectionExampleScenario.node[33].appl 	IntersectionEnterTime 	70.5
scalar IntersectionExampleScenario.node[33].appl 	IntersectionExitTime 	112.50552735469
scalar IntersectionExampleScenario.node[33].appl 	NumberOfCollisions 	0
scalar IntersectionExampleScenario.node[33].nic.phy80211p 	busyTime 	0
scalar IntersectionExampleScenario.node[33].nic.mac1609_4 	ReceivedUnicastPackets 	0
scalar IntersectionExampleScenario.node[33].nic.mac1609_4 	ReceivedBroadcasts 	0
scalar IntersectionExampleScenario.node[33].nic.mac1609_4 	SentPackets 	0
scalar IntersectionExampleScenario.node[33].nic.mac1609_4 	SNIRLostPackets 	0
scalar IntersectionExampleScenario.node[33].nic.mac1609_4 	RXTXLostPackets 	0
scalar IntersectionExampleScenario.node[33].nic.mac1609_4 	TotalLostPackets 	0
scalar IntersectionExampleScenario.node[33].nic.mac1609_4 	DroppedPacketsInMac 	0
scalar IntersectionExampleScenario.node[33].nic.mac1609_4 	TooLittleTime 	0
scalar IntersectionExampleScenario.node[33].nic.mac1609_4 	TimesIntoBackoff 	0
scalar IntersectionExampleScenario.node[33].nic.mac1609_4 	SlotsBackoff 	0
scalar IntersectionExampleScenario.node[33].nic.mac1609_4 	NumInternalContention 	0
scalar IntersectionExampleScenario.node[33].nic.mac1609_4 	totalBusyTime 	0
scalar IntersectionExampleScenario.node[33].veinsmobility 	startTime 	70.5
scalar IntersectionExampleScenario.node[33].veinsmobility 	totalTime 	59
scalar IntersectionExampleScenario.node[33].veinsmobility 	stopTime 	129.75
scalar IntersectionExampleScenario.node[33].veinsmobility 	minSpeed 	0
scalar IntersectionExampleScenario.node[33].veinsmobility 	maxSpeed 	14.688677787781
scalar IntersectionExampleScenario.node[33].veinsmobility 	totalDistance 	578.93082427979
scalar IntersectionExampleScenario.node[33].veinsmobility 	totalCO2Emission 	150.07412870637
scalar IntersectionExampleScenario.node[34].appl 	VehicleRemoved 	0
scalar IntersectionExampleScenario.node[34].appl 	ArrivedAtDest 	1
scalar IntersectionExampleScenario.node[34].appl 	IntersectionEnterTime 	73.5
scalar IntersectionExampleScenario.node[34].appl 	IntersectionExitTime 	114.5294215552
scalar IntersectionExampleScenario.node[34].appl 	NumberOfCollisions 	0
scalar IntersectionExampleScenario.node[34].nic.phy80211p 	busyTime 	0
scalar IntersectionExampleScenario.node[34].nic.mac1609_4 	ReceivedUnicastPackets 	0
scalar IntersectionExampleScenario.node[34].nic.mac1609_4 	ReceivedBroadcasts 	0
scalar IntersectionExampleScenario.node[34].nic.mac1609_4 	SentPackets 	0
scalar IntersectionExampleScenario.node[34].nic.mac1609_4 	SNIRLostPackets 	0
scalar IntersectionExampleScenario.node[34].nic.mac1609_4 	RXTXLostPackets 	0
scalar IntersectionExampleScenario.node[34].nic.mac1609_4 	TotalLostPackets 	0
scalar IntersectionExampleScenario.node[34].nic.mac1609_4 	DroppedPacketsInMac 	0
scalar IntersectionExampleScenario.node[34].nic.mac1609_4 	TooLittleTime 	0
scalar IntersectionExampleScenario.node[34].nic.mac1609_4 	TimesIntoBackoff 	0
scalar IntersectionExampleScenario.node[34].nic.mac1609_4 	SlotsBackoff 	0
scalar IntersectionExampleScenario.node[34].nic.mac1609_4 	NumInternalContention 	0
scalar IntersectionExampleScenario.node[34].nic.mac1609_4 	totalBusyTime 	0
scalar IntersectionExampleScenario.node[34].veinsmobility 	startTime 	73.5
scalar IntersectionExampleScenario.node[34].veinsmobility 	totalTime 	57.5
scalar IntersectionExampleScenario.node[34].veinsmobility 	stopTime 	131.25
scalar IntersectionExampleScenario.node[34].veinsmobility 	minSpeed 	0
scalar IntersectionExampleScenario.node[34].veinsmobility 	maxSpeed 	14.796378135681
scalar IntersectionExampleScenario.node[34].veinsmobility 	totalDistance 	578.22882843018
scalar IntersectionExampleScenario.node[34].veinsmobility 	totalCO2Emission 	149.87934298574
scalar IntersectionExampleScenario.node[39].appl 	VehicleRemoved 	0
scalar IntersectionExampleScenario.node[39].appl 	ArrivedAtDest 	1
scalar IntersectionExampleScenario.node[39].appl 	IntersectionEnterTime 	82.25
scalar IntersectionExampleScenario.node[39].appl 	IntersectionExitTime 	116.86273506275
scalar IntersectionExampleScenario.node[39].appl 	NumberOfCollisions 	0
scalar IntersectionExampleScenario.node[39].nic.phy80211p 	busyTime 	0
scalar IntersectionExampleScenario.node[39].nic.mac1609_4 	ReceivedUnicastPackets 	0
scalar IntersectionExampleScenario.node[39].nic.mac1609_4 	ReceivedBroadcasts 	0
scalar IntersectionExampleScenario.node[39].nic.mac1609_4 	SentPackets 	0
scalar IntersectionExampleScenario.node[39].nic.mac1609_4 	SNIRLostPackets 	0
scalar IntersectionExampleScenario.node[39].nic.mac1609_4 	RXTXLostPackets 	0
scalar IntersectionExampleScenario.node[39].nic.mac1609_4 	TotalLostPackets 	0
scalar IntersectionExampleScenario.node[39].nic.mac1609_4 	DroppedPacketsInMac 	0
scalar IntersectionExampleScenario.node[39].nic.mac1609_4 	TooLittleTime 	0
scalar IntersectionExampleScenario.node[39].nic.mac1609_4 	TimesIntoBackoff 	0
scalar IntersectionExampleScenario.node[39].nic.mac1609_4 	SlotsBackoff 	0
scalar IntersectionExampleScenario.node[39].nic.mac1609_4 	NumInternalContention 	0
scalar IntersectionExampleScenario.node[39].nic.mac1609_4 	totalBusyTime 	0
scalar IntersectionExampleScenario.node[39].veinsmobility 	startTime 	82.25
scalar IntersectionExampleScenario.node[39].veinsmobility 	totalTime 	51.5
scalar IntersectionExampleScenario.node[39].veinsmobility 	stopTime 	134
scalar IntersectionExampleScenario.node[39].veinsmobility 	minSpeed 	3.2592830657959
scalar IntersectionExampleScenario.node[39].veinsmobility 	maxSpeed 	15.25
scalar IntersectionExampleScenario.node[39].veinsmobility 	totalDistance 	543.42928108105
scalar IntersectionExampleScenario.node[39].veinsmobility 	totalCO2Emission 	145.74068774695
scalar IntersectionExampleScenario.node[40].appl 	VehicleRemoved 	0
scalar IntersectionExampleScenario.node[40].appl 	ArrivedAtDest 	1
scalar IntersectionExampleScenario.node[40].appl 	IntersectionEnterTime 	83.25
scalar IntersectionExampleScenario.node[40].appl 	IntersectionExitTime 	119.04906568292
scalar IntersectionExampleScenario.node[40].appl 	NumberOfCollisions 	0
scalar IntersectionExampleScenario.node[40].nic.phy80211p 	busyTime 	0
scalar IntersectionExampleScenario.node[40].nic.mac1609_4 	ReceivedUnicastPackets 	0
scalar IntersectionExampleScenario.node[40].nic.mac1609_4 	ReceivedBroadcasts 	0
scalar IntersectionExampleScenario.node[40].nic.mac1609_4 	SentPackets 	0
scalar IntersectionExampleScenario.node[40].nic.mac1609_4 	SNIRLostPackets 	0
scalar IntersectionExampleScenario.node[40].nic.mac1609_4 	RXTXLostPackets 	0
scalar IntersectionExampleScenario.node[40].nic.mac1609_4 	TotalLostPackets 	0
scalar IntersectionExampleScenario.node[40].nic.mac1609_4 	DroppedPacketsInMac 	0
scalar IntersectionExampleScenario.node[40].nic.mac1609_4 	TooLittleTime 	0
scalar IntersectionExampleScenario.node[40].nic.mac1609_4 	TimesIntoBackoff 	0
scalar IntersectionExampleScenario.node[40].nic.mac1609_4 	SlotsBackoff 	0
scalar IntersectionExampleScenario.node[40].nic.mac1609_4 	NumInternalContention 	0
scalar IntersectionExampleScenario.node[40].nic.mac1609_4 	totalBusyTime 	0
scalar IntersectionExampleScenario.node[40].veinsmobility 	startTime 	83.25
scalar IntersectionExampleScenario.node[40].veinsmobility 	totalTime 	52.75
scalar IntersectionExampleScenario.node[40].veinsmobility 	stopTime 	136.25
scalar IntersectionExampleScenario.node[40].veinsmobility 	minSpeed 	3.0528039932251
scalar IntersectionExampleScenario.node[40].veinsmobility 	maxSpeed 	15.073929786682
scalar IntersectionExampleScenario.node[40].veinsmobility 	totalDistance 	567.80657039299
scalar IntersectionExampleScenario.node[40].veinsmobility 	totalCO2Emission 	151.57680798198
scalar IntersectionExampleScenario.node[41].appl 	VehicleRemoved 	0
scalar IntersectionExampleScenario.node[41].appl 	ArrivedAtDest 	1
scalar IntersectionExampleScenario.node[41].appl 	IntersectionEnterTime 	88.25
scalar IntersectionExampleScenario.node[41].appl 	IntersectionExitTime 	121.09576482946
scalar IntersectionExampleScenario.node[41].appl 	NumberOfCollisions 	0
scalar IntersectionExampleScenario.node[41].nic.phy80211p 	busyTime 	0
scalar IntersectionExampleScenario.node[41].nic.mac1609_4 	ReceivedUnicastPackets 	0
scalar IntersectionExampleScenario.node[41].nic.mac1609_4 	ReceivedBroadcasts 	0
scalar IntersectionExampleScenario.node[41].nic.mac1609_4 	SentPackets 	0
scalar IntersectionExampleScenario.node[41].nic.mac1609_4 	SNIRLostPackets 	0
scalar IntersectionExampleScenario.node[41].nic.mac1609_4 	RXTXLostPackets 	0
scalar IntersectionExampleScenario.node[41].nic.mac1609_4 	TotalLostPackets 	0
scalar IntersectionExampleScenario.node[41].nic.mac1609_4 	DroppedPacketsInMac 	0
scalar IntersectionExampleScenario.node[41].nic.mac1609_4 	TooLittleTime 	0
scalar IntersectionExampleScenario.node[41].nic.mac1609_4 	TimesIntoBackoff 	0
scalar IntersectionExampleScenario.node[41].nic.mac1609_4 	SlotsBackoff 	0
scalar IntersectionExampleScenario.node[41].nic.mac1609_4 	NumInternalContention 	0
scalar IntersectionExampleScenario.node[41].nic.mac1609_4 	totalBusyTime 	0
scalar IntersectionExampleScenario.node[41].veinsmobility 	startTime 	88.25
scalar IntersectionExampleScenario.node[41].veinsmobility 	totalTime 	49.75
scalar IntersectionExampleScenario.node[41].veinsmobility 	stopTime 	138.25
scalar IntersectionExampleScenario.node[41].veinsmobility 	minSpeed 	5.6500000953674
scalar IntersectionExampleScenario.node[41].veinsmobility 	maxSpeed 	15.015439987183
scalar IntersectionExampleScenario.node[41].veinsmobility 	totalDistance 	555.22023878973
scalar IntersectionExampleScenario.node[41].veinsmobility 	totalCO2Emission 	135.82581846587
scalar IntersectionExampleScenario.node[44].appl 	VehicleRemoved 	0
scalar IntersectionExampleScenario.node[44].appl 	ArrivedAtDest 	1
scalar IntersectionExampleScenario.node[44].appl 	IntersectionEnterTime 	98
scalar IntersectionExampleScenario.node[44].appl 	IntersectionExitTime 	122.62487048999
scalar IntersectionExampleScenario.node[44].appl 	NumberOfCollisions 	0
scalar IntersectionExampleScenario.node[44].nic.phy80211p 	busyTime 	0
scalar IntersectionExampleScenario.node[44].nic.mac1609_4 	ReceivedUnicastPackets 	0
scalar IntersectionExampleScenario.node[44].nic.mac1609_4 	ReceivedBroadcasts 	0
scalar IntersectionExampleScenario.node[44].nic.mac1609_4 	SentPackets 	0
scalar IntersectionExampleScenario.node[44].nic.mac1609_4 	SNIRLostPackets 	0
scalar IntersectionExampleScenario.node[44].nic.mac1609_4 	RXTXLostPackets 	0
scalar IntersectionExampleScenario.node[44].nic.mac1609_4 	TotalLostPackets 	0
scalar IntersectionExampleScenario.node[44].nic.mac1609_4 	DroppedPacketsInMac 	0
scalar IntersectionExampleScenario.node[44].nic.mac1609_4 	TooLittleTime 	0
scalar IntersectionExampleScenario.node[44].nic.mac1609_4 	TimesIntoBackoff 	0
scalar IntersectionExampleScenario.node[44].nic.mac1609_4 	SlotsBackoff 	0
scalar IntersectionExampleScenario.node[44].nic.mac1609_4 	NumInternalContention 	0
scalar IntersectionExampleScenario.node[44].nic.mac1609_4 	totalBusyTime 	0
scalar IntersectionExampleScenario.node[44].veinsmobility 	startTime 	98
scalar IntersectionExampleScenario.node[44].veinsmobility 	totalTime 	40.25
scalar IntersectionExampleScenario.node[44].veinsmobility 	stopTime 	138.5
scalar IntersectionExampleScenario.node[44].veinsmobility 	minSpeed 	5.6500000953674
scalar IntersectionExampleScenario.node[44].veinsmobility 	maxSpeed 	16
scalar IntersectionExampleScenario.node[44].veinsmobility 	totalDistance 	549.51925559158
scalar IntersectionExampleScenario.node[44].veinsmobility 	totalCO2Emission 	126.85133668024
scalar IntersectionExampleScenario.node[46].appl 	VehicleRemoved 	0
scalar IntersectionExampleScenario.node[46].appl 	ArrivedAtDest 	1
scalar IntersectionExampleScenario.node[46].appl 	IntersectionEnterTime 	99.5
scalar IntersectionExampleScenario.node[46].appl 	IntersectionExitTime 	123.06716807795
scalar IntersectionExampleScenario.node[46].appl 	NumberOfCollisions 	0
scalar IntersectionExampleScenario.node[46].nic.phy80211p 	busyTime 	0
scalar IntersectionExampleScenario.node[46].nic.mac1609_4 	ReceivedUnicastPackets 	0
scalar IntersectionExampleScenario.node[46].nic.mac1609_4 	ReceivedBroadcasts 	0
scalar IntersectionExampleScenario.node[46].nic.mac1609_4 	SentPackets 	0
scalar IntersectionExampleScenario.node[46].nic.mac1609_4 	SNIRLostPackets 	0
scalar IntersectionExampleScenario.node[46].nic.mac1609_4 	RXTXLostPackets 	0
scalar IntersectionExampleScenario.node[46].nic.mac1609_4 	TotalLostPackets 	0
scalar IntersectionExampleScenario.node[46].nic.mac1609_4 	DroppedPacketsInMac 	0
scalar IntersectionExampleScenario.node[46].nic.mac1609_4 	TooLittleTime 	0
scalar IntersectionExampleScenario.node[46].nic.mac1609_4 	TimesIntoBackoff 	0
scalar IntersectionExampleScenario.node[46].nic.mac1609_4 	SlotsBackoff 	0
scalar IntersectionExampleScenario.node[46].nic.mac1609_4 	NumInternalContention 	0
scalar IntersectionExampleScenario.node[46].nic.mac1609_4 	totalBusyTime 	0
scalar IntersectionExampleScenario.node[46].veinsmobility 	startTime 	99.5
scalar IntersectionExampleScenario.node[46].veinsmobility 	totalTime 	40
scalar IntersectionExampleScenario.node[46].veinsmobility 	stopTime 	139.75
scalar IntersectionExampleScenario.node[46].veinsmobility 	minSpeed 	5.6500000953674
scalar IntersectionExampleScenario.node[46].veinsmobility 	maxSpeed 	15.02499961853
scalar IntersectionExampleScenario.node[46].veinsmobility 	totalDistance 	553.0140838623
scalar IntersectionExampleScenario.node[46].veinsmobility 	totalCO2Emission 	114.18256448094
scalar IntersectionExampleScenario.node[16].appl 	VehicleRemoved 	0
scalar IntersectionExampleScenario.node[16].appl 	ArrivedAtDest 	1
scalar IntersectionExampleScenario.node[16].appl 	IntersectionEnterTime 	44.5
scalar IntersectionExampleScenario.node[16].appl 	IntersectionExitTime 	125.7744899987
scalar IntersectionExampleScenario.node[16].appl 	NumberOfCollisions 	0
scalar IntersectionExampleScenario.node[16].nic.phy80211p 	busyTime 	0
scalar IntersectionExampleScenario.node[16].nic.mac1609_4 	ReceivedUnicastPackets 	0
scalar IntersectionExampleScenario.node[16].nic.mac1609_4 	ReceivedBroadcasts 	0
scalar IntersectionExampleScenario.node[16].nic.mac1609_4 	SentPackets 	0
scalar IntersectionExampleScenario.node[16].nic.mac1609_4 	SNIRLostPackets 	0
scalar IntersectionExampleScenario.node[16].nic.mac1609_4 	RXTXLostPackets 	0
scalar IntersectionExampleScenario.node[16].nic.mac1609_4 	TotalLostPackets 	0
scalar IntersectionExampleScenario.node[16].nic.mac1609_4 	DroppedPacketsInMac 	0
scalar IntersectionExampleScenario.node[16].nic.mac1609_4 	TooLittleTime 	0
scalar IntersectionExampleScenario.node[16].nic.mac1609_4 	TimesIntoBackoff 	0
scalar IntersectionExampleScenario.node[16].nic.mac1609_4 	SlotsBackoff 	0
[...]
scalar IntersectionExampleScenario.node[676].veinsmobility 	totalDistance 	281.02381134033
scalar IntersectionExampleScenario.node[676].veinsmobility 	totalCO2Emission 	90.06911915561
scalar IntersectionExampleScenario.node[677].appl 	VehicleRemoved 	0
scalar IntersectionExampleScenario.node[677].appl 	ArrivedAtDest 	0
scalar IntersectionExampleScenario.node[677].appl 	IntersectionEnterTime 	1750.75
scalar IntersectionExampleScenario.node[677].appl 	IntersectionExitTime 	1796.2896240486
scalar IntersectionExampleScenario.node[677].appl 	NumberOfCollisions 	0
scalar IntersectionExampleScenario.node[677].nic.phy80211p 	busyTime 	0
scalar IntersectionExampleScenario.node[677].nic.mac1609_4 	ReceivedUnicastPackets 	0
scalar IntersectionExampleScenario.node[677].nic.mac1609_4 	ReceivedBroadcasts 	0
scalar IntersectionExampleScenario.node[677].nic.mac1609_4 	SentPackets 	0
scalar IntersectionExampleScenario.node[677].nic.mac1609_4 	SNIRLostPackets 	0
scalar IntersectionExampleScenario.node[677].nic.mac1609_4 	RXTXLostPackets 	0
scalar IntersectionExampleScenario.node[677].nic.mac1609_4 	TotalLostPackets 	0
scalar IntersectionExampleScenario.node[677].nic.mac1609_4 	DroppedPacketsInMac 	0
scalar IntersectionExampleScenario.node[677].nic.mac1609_4 	TooLittleTime 	0
scalar IntersectionExampleScenario.node[677].nic.mac1609_4 	TimesIntoBackoff 	0
scalar IntersectionExampleScenario.node[677].nic.mac1609_4 	SlotsBackoff 	0
scalar IntersectionExampleScenario.node[677].nic.mac1609_4 	NumInternalContention 	0
scalar IntersectionExampleScenario.node[677].nic.mac1609_4 	totalBusyTime 	0
scalar IntersectionExampleScenario.node[677].veinsmobility 	startTime 	1750.75
scalar IntersectionExampleScenario.node[677].veinsmobility 	totalTime 	49.25
scalar IntersectionExampleScenario.node[677].veinsmobility 	stopTime 	1800
scalar IntersectionExampleScenario.node[677].veinsmobility 	minSpeed 	0
scalar IntersectionExampleScenario.node[677].veinsmobility 	maxSpeed 	16.125
scalar IntersectionExampleScenario.node[677].veinsmobility 	totalDistance 	377.74231719971
scalar IntersectionExampleScenario.node[677].veinsmobility 	totalCO2Emission 	129.23624001993
scalar IntersectionExampleScenario.node[678].appl 	VehicleRemoved 	0
scalar IntersectionExampleScenario.node[678].appl 	ArrivedAtDest 	0
scalar IntersectionExampleScenario.node[678].appl 	IntersectionEnterTime 	1753.25
scalar IntersectionExampleScenario.node[678].appl 	IntersectionExitTime 	-1
scalar IntersectionExampleScenario.node[678].appl 	NumberOfCollisions 	0
scalar IntersectionExampleScenario.node[678].nic.phy80211p 	busyTime 	0
scalar IntersectionExampleScenario.node[678].nic.mac1609_4 	ReceivedUnicastPackets 	0
scalar IntersectionExampleScenario.node[678].nic.mac1609_4 	ReceivedBroadcasts 	0
scalar IntersectionExampleScenario.node[678].nic.mac1609_4 	SentPackets 	0
scalar IntersectionExampleScenario.node[678].nic.mac1609_4 	SNIRLostPackets 	0
scalar IntersectionExampleScenario.node[678].nic.mac1609_4 	RXTXLostPackets 	0
scalar IntersectionExampleScenario.node[678].nic.mac1609_4 	TotalLostPackets 	0
scalar IntersectionExampleScenario.node[678].nic.mac1609_4 	DroppedPacketsInMac 	0
scalar IntersectionExampleScenario.node[678].nic.mac1609_4 	TooLittleTime 	0
scalar IntersectionExampleScenario.node[678].nic.mac1609_4 	TimesIntoBackoff 	0
scalar IntersectionExampleScenario.node[678].nic.mac1609_4 	SlotsBackoff 	0
scalar IntersectionExampleScenario.node[678].nic.mac1609_4 	NumInternalContention 	0
scalar IntersectionExampleScenario.node[678].nic.mac1609_4 	totalBusyTime 	0
scalar IntersectionExampleScenario.node[678].veinsmobility 	startTime 	1753.25
scalar IntersectionExampleScenario.node[678].veinsmobility 	totalTime 	46.75
scalar IntersectionExampleScenario.node[678].veinsmobility 	stopTime 	1800
scalar IntersectionExampleScenario.node[678].veinsmobility 	minSpeed 	0
scalar IntersectionExampleScenario.node[678].veinsmobility 	maxSpeed 	15.02499961853
scalar IntersectionExampleScenario.node[678].veinsmobility 	totalDistance 	274.49756622314
scalar IntersectionExampleScenario.node[678].veinsmobility 	totalCO2Emission 	84.678400815801
scalar IntersectionExampleScenario.node[681].appl 	VehicleRemoved 	0
scalar IntersectionExampleScenario.node[681].appl 	ArrivedAtDest 	0
scalar IntersectionExampleScenario.node[681].appl 	IntersectionEnterTime 	1761.75
scalar IntersectionExampleScenario.node[681].appl 	IntersectionExitTime 	1798.5336270699
scalar IntersectionExampleScenario.node[681].appl 	NumberOfCollisions 	0
scalar IntersectionExampleScenario.node[681].nic.phy80211p 	busyTime 	0
scalar IntersectionExampleScenario.node[681].nic.mac1609_4 	ReceivedUnicastPackets 	0
scalar IntersectionExampleScenario.node[681].nic.mac1609_4 	ReceivedBroadcasts 	0
scalar IntersectionExampleScenario.node[681].nic.mac1609_4 	SentPackets 	0
scalar IntersectionExampleScenario.node[681].nic.mac1609_4 	SNIRLostPackets 	0
scalar IntersectionExampleScenario.node[681].nic.mac1609_4 	RXTXLostPackets 	0
scalar IntersectionExampleScenario.node[681].nic.mac1609_4 	TotalLostPackets 	0
scalar IntersectionExampleScenario.node[681].nic.mac1609_4 	DroppedPacketsInMac 	0
scalar IntersectionExampleScenario.node[681].nic.mac1609_4 	TooLittleTime 	0
scalar IntersectionExampleScenario.node[681].nic.mac1609_4 	TimesIntoBackoff 	0
scalar IntersectionExampleScenario.node[681].nic.mac1609_4 	SlotsBackoff 	0
scalar IntersectionExampleScenario.node[681].nic.mac1609_4 	NumInternalContention 	0
scalar IntersectionExampleScenario.node[681].nic.mac1609_4 	totalBusyTime 	0
scalar IntersectionExampleScenario.node[681].veinsmobility 	startTime 	1761.75
scalar IntersectionExampleScenario.node[681].veinsmobility 	totalTime 	38.25
scalar IntersectionExampleScenario.node[681].veinsmobility 	stopTime 	1800
scalar IntersectionExampleScenario.node[681].veinsmobility 	minSpeed 	1.2666751146317
scalar IntersectionExampleScenario.node[681].veinsmobility 	maxSpeed 	15.64999961853
scalar IntersectionExampleScenario.node[681].veinsmobility 	totalDistance 	332.94785308838
scalar IntersectionExampleScenario.node[681].veinsmobility 	totalCO2Emission 	107.43423174519
scalar IntersectionExampleScenario.node[682].appl 	VehicleRemoved 	0
scalar IntersectionExampleScenario.node[682].appl 	ArrivedAtDest 	0
scalar IntersectionExampleScenario.node[682].appl 	IntersectionEnterTime 	1762.25
scalar IntersectionExampleScenario.node[682].appl 	IntersectionExitTime 	-1
scalar IntersectionExampleScenario.node[682].appl 	NumberOfCollisions 	0
scalar IntersectionExampleScenario.node[682].nic.phy80211p 	busyTime 	0
scalar IntersectionExampleScenario.node[682].nic.mac1609_4 	ReceivedUnicastPackets 	0
scalar IntersectionExampleScenario.node[682].nic.mac1609_4 	ReceivedBroadcasts 	0
scalar IntersectionExampleScenario.node[682].nic.mac1609_4 	SentPackets 	0
scalar IntersectionExampleScenario.node[682].nic.mac1609_4 	SNIRLostPackets 	0
scalar IntersectionExampleScenario.node[682].nic.mac1609_4 	RXTXLostPackets 	0
scalar IntersectionExampleScenario.node[682].nic.mac1609_4 	TotalLostPackets 	0
scalar IntersectionExampleScenario.node[682].nic.mac1609_4 	DroppedPacketsInMac 	0
scalar IntersectionExampleScenario.node[682].nic.mac1609_4 	TooLittleTime 	0
scalar IntersectionExampleScenario.node[682].nic.mac1609_4 	TimesIntoBackoff 	0
scalar IntersectionExampleScenario.node[682].nic.mac1609_4 	SlotsBackoff 	0
scalar IntersectionExampleScenario.node[682].nic.mac1609_4 	NumInternalContention 	0
scalar IntersectionExampleScenario.node[682].nic.mac1609_4 	totalBusyTime 	0
scalar IntersectionExampleScenario.node[682].veinsmobility 	startTime 	1762.25
scalar IntersectionExampleScenario.node[682].veinsmobility 	totalTime 	37.75
scalar IntersectionExampleScenario.node[682].veinsmobility 	stopTime 	1800
scalar IntersectionExampleScenario.node[682].veinsmobility 	minSpeed 	0
scalar IntersectionExampleScenario.node[682].veinsmobility 	maxSpeed 	15.02499961853
scalar IntersectionExampleScenario.node[682].veinsmobility 	totalDistance 	267.09595489502
scalar IntersectionExampleScenario.node[682].veinsmobility 	totalCO2Emission 	74.256814450413
scalar IntersectionExampleScenario.node[683].appl 	VehicleRemoved 	0
scalar IntersectionExampleScenario.node[683].appl 	ArrivedAtDest 	0
scalar IntersectionExampleScenario.node[683].appl 	IntersectionEnterTime 	1764.5
scalar IntersectionExampleScenario.node[683].appl 	IntersectionExitTime 	-1
scalar IntersectionExampleScenario.node[683].appl 	NumberOfCollisions 	0
scalar IntersectionExampleScenario.node[683].nic.phy80211p 	busyTime 	0
scalar IntersectionExampleScenario.node[683].nic.mac1609_4 	ReceivedUnicastPackets 	0
scalar IntersectionExampleScenario.node[683].nic.mac1609_4 	ReceivedBroadcasts 	0
scalar IntersectionExampleScenario.node[683].nic.mac1609_4 	SentPackets 	0
scalar IntersectionExampleScenario.node[683].nic.mac1609_4 	SNIRLostPackets 	0
scalar IntersectionExampleScenario.node[683].nic.mac1609_4 	RXTXLostPackets 	0
scalar IntersectionExampleScenario.node[683].nic.mac1609_4 	TotalLostPackets 	0
scalar IntersectionExampleScenario.node[683].nic.mac1609_4 	DroppedPacketsInMac 	0
scalar IntersectionExampleScenario.node[683].nic.mac1609_4 	TooLittleTime 	0
scalar IntersectionExampleScenario.node[683].nic.mac1609_4 	TimesIntoBackoff 	0
scalar IntersectionExampleScenario.node[683].nic.mac1609_4 	SlotsBackoff 	0
scalar IntersectionExampleScenario.node[683].nic.mac1609_4 	NumInternalContention 	0
scalar IntersectionExampleScenario.node[683].nic.mac1609_4 	totalBusyTime 	0
scalar IntersectionExampleScenario.node[683].veinsmobility 	startTime 	1764.5
scalar IntersectionExampleScenario.node[683].veinsmobility 	totalTime 	35.5
scalar IntersectionExampleScenario.node[683].veinsmobility 	stopTime 	1800
scalar IntersectionExampleScenario.node[683].veinsmobility 	minSpeed 	0
scalar IntersectionExampleScenario.node[683].veinsmobility 	maxSpeed 	15.02499961853
scalar IntersectionExampleScenario.node[683].veinsmobility 	totalDistance 	276.30702972412
scalar IntersectionExampleScenario.node[683].veinsmobility 	totalCO2Emission 	75.912474360116
scalar IntersectionExampleScenario.node[684].appl 	VehicleRemoved 	0
scalar IntersectionExampleScenario.node[684].appl 	ArrivedAtDest 	0
scalar IntersectionExampleScenario.node[684].appl 	IntersectionEnterTime 	1784.75
scalar IntersectionExampleScenario.node[684].appl 	IntersectionExitTime 	-1
scalar IntersectionExampleScenario.node[684].appl 	NumberOfCollisions 	0
scalar IntersectionExampleScenario.node[684].nic.phy80211p 	busyTime 	0
scalar IntersectionExampleScenario.node[684].nic.mac1609_4 	ReceivedUnicastPackets 	0
scalar IntersectionExampleScenario.node[684].nic.mac1609_4 	ReceivedBroadcasts 	0
scalar IntersectionExampleScenario.node[684].nic.mac1609_4 	SentPackets 	0
scalar IntersectionExampleScenario.node[684].nic.mac1609_4 	SNIRLostPackets 	0
scalar IntersectionExampleScenario.node[684].nic.mac1609_4 	RXTXLostPackets 	0
scalar IntersectionExampleScenario.node[684].nic.mac1609_4 	TotalLostPackets 	0
scalar IntersectionExampleScenario.node[684].nic.mac1609_4 	DroppedPacketsInMac 	0
scalar IntersectionExampleScenario.node[684].nic.mac1609_4 	TooLittleTime 	0
scalar IntersectionExampleScenario.node[684].nic.mac1609_4 	TimesIntoBackoff 	0
scalar IntersectionExampleScenario.node[684].nic.mac1609_4 	SlotsBackoff 	0
scalar IntersectionExampleScenario.node[684].nic.mac1609_4 	NumInternalContention 	0
scalar IntersectionExampleScenario.node[684].nic.mac1609_4 	totalBusyTime 	0
scalar IntersectionExampleScenario.node[684].veinsmobility 	startTime 	1784.75
scalar IntersectionExampleScenario.node[684].veinsmobility 	totalTime 	15.25
scalar IntersectionExampleScenario.node[684].veinsmobility 	stopTime 	1800
scalar IntersectionExampleScenario.node[684].veinsmobility 	minSpeed 	5.6500000953674
scalar IntersectionExampleScenario.node[684].veinsmobility 	maxSpeed 	16.27499961853
scalar IntersectionExampleScenario.node[684].veinsmobility 	totalDistance 	216.88144683838
scalar IntersectionExampleScenario.node[684].veinsmobility 	totalCO2Emission 	58.494409908571
scalar IntersectionExampleScenario.node[685].appl 	VehicleRemoved 	0
scalar IntersectionExampleScenario.node[685].appl 	ArrivedAtDest 	0
scalar IntersectionExampleScenario.node[685].appl 	IntersectionEnterTime 	1787.25
scalar IntersectionExampleScenario.node[685].appl 	IntersectionExitTime 	-1
scalar IntersectionExampleScenario.node[685].appl 	NumberOfCollisions 	0
scalar IntersectionExampleScenario.node[685].nic.phy80211p 	busyTime 	0
scalar IntersectionExampleScenario.node[685].nic.mac1609_4 	ReceivedUnicastPackets 	0
scalar IntersectionExampleScenario.node[685].nic.mac1609_4 	ReceivedBroadcasts 	0
scalar IntersectionExampleScenario.node[685].nic.mac1609_4 	SentPackets 	0
scalar IntersectionExampleScenario.node[685].nic.mac1609_4 	SNIRLostPackets 	0
scalar IntersectionExampleScenario.node[685].nic.mac1609_4 	RXTXLostPackets 	0
scalar IntersectionExampleScenario.node[685].nic.mac1609_4 	TotalLostPackets 	0
scalar IntersectionExampleScenario.node[685].nic.mac1609_4 	DroppedPacketsInMac 	0
scalar IntersectionExampleScenario.node[685].nic.mac1609_4 	TooLittleTime 	0
scalar IntersectionExampleScenario.node[685].nic.mac1609_4 	TimesIntoBackoff 	0
scalar IntersectionExampleScenario.node[685].nic.mac1609_4 	SlotsBackoff 	0
scalar IntersectionExampleScenario.node[685].nic.mac1609_4 	NumInternalContention 	0
scalar IntersectionExampleScenario.node[685].nic.mac1609_4 	totalBusyTime 	0
scalar IntersectionExampleScenario.node[685].veinsmobility 	startTime 	1787.25
scalar IntersectionExampleScenario.node[685].veinsmobility 	totalTime 	12.75
scalar IntersectionExampleScenario.node[685].veinsmobility 	stopTime 	1800
scalar IntersectionExampleScenario.node[685].veinsmobility 	minSpeed 	5.6500000953674
scalar IntersectionExampleScenario.node[685].veinsmobility 	maxSpeed 	16.27499961853
scalar IntersectionExampleScenario.node[685].veinsmobility 	totalDistance 	177.08863067627
scalar IntersectionExampleScenario.node[685].veinsmobility 	totalCO2Emission 	52.116280243232
scalar IntersectionExampleScenario.node[686].appl 	VehicleRemoved 	0
scalar IntersectionExampleScenario.node[686].appl 	ArrivedAtDest 	0
scalar IntersectionExampleScenario.node[686].appl 	IntersectionEnterTime 	1793.5
scalar IntersectionExampleScenario.node[686].appl 	IntersectionExitTime 	-1
scalar IntersectionExampleScenario.node[686].appl 	NumberOfCollisions 	0
scalar IntersectionExampleScenario.node[686].nic.phy80211p 	busyTime 	0
scalar IntersectionExampleScenario.node[686].nic.mac1609_4 	ReceivedUnicastPackets 	0
scalar IntersectionExampleScenario.node[686].nic.mac1609_4 	ReceivedBroadcasts 	0
scalar IntersectionExampleScenario.node[686].nic.mac1609_4 	SentPackets 	0
scalar IntersectionExampleScenario.node[686].nic.mac1609_4 	SNIRLostPackets 	0
scalar IntersectionExampleScenario.node[686].nic.mac1609_4 	RXTXLostPackets 	0
scalar IntersectionExampleScenario.node[686].nic.mac1609_4 	TotalLostPackets 	0
scalar IntersectionExampleScenario.node[686].nic.mac1609_4 	DroppedPacketsInMac 	0
scalar IntersectionExampleScenario.node[686].nic.mac1609_4 	TooLittleTime 	0
scalar IntersectionExampleScenario.node[686].nic.mac1609_4 	TimesIntoBackoff 	0
scalar IntersectionExampleScenario.node[686].nic.mac1609_4 	SlotsBackoff 	0
scalar IntersectionExampleScenario.node[686].nic.mac1609_4 	NumInternalContention 	0
scalar IntersectionExampleScenario.node[686].nic.mac1609_4 	totalBusyTime 	0
scalar IntersectionExampleScenario.node[686].veinsmobility 	startTime 	1793.5
scalar IntersectionExampleScenario.node[686].veinsmobility 	totalTime 	6.5
scalar IntersectionExampleScenario.node[686].veinsmobility 	stopTime 	1800
scalar IntersectionExampleScenario.node[686].veinsmobility 	minSpeed 	5.6500000953674
scalar IntersectionExampleScenario.node[686].veinsmobility 	maxSpeed 	15.02499961853
scalar IntersectionExampleScenario.node[686].veinsmobility 	totalDistance 	77.512634277344
scalar IntersectionExampleScenario.node[686].veinsmobility 	totalCO2Emission 	35.708356995075
scalar IntersectionExampleScenario.node[687].appl 	VehicleRemoved 	0
scalar IntersectionExampleScenario.node[687].appl 	ArrivedAtDest 	0
scalar IntersectionExampleScenario.node[687].appl 	IntersectionEnterTime 	1796
scalar IntersectionExampleScenario.node[687].appl 	IntersectionExitTime 	-1
scalar IntersectionExampleScenario.node[687].appl 	NumberOfCollisions 	0
scalar IntersectionExampleScenario.node[687].nic.phy80211p 	busyTime 	0
scalar IntersectionExampleScenario.node[687].nic.mac1609_4 	ReceivedUnicastPackets 	0
scalar IntersectionExampleScenario.node[687].nic.mac1609_4 	ReceivedBroadcasts 	0
scalar IntersectionExampleScenario.node[687].nic.mac1609_4 	SentPackets 	0
scalar IntersectionExampleScenario.node[687].nic.mac1609_4 	SNIRLostPackets 	0
scalar IntersectionExampleScenario.node[687].nic.mac1609_4 	RXTXLostPackets 	0
scalar IntersectionExampleScenario.node[687].nic.mac1609_4 	TotalLostPackets 	0
scalar IntersectionExampleScenario.node[687].nic.mac1609_4 	DroppedPacketsInMac 	0
scalar IntersectionExampleScenario.node[687].nic.mac1609_4 	TooLittleTime 	0
scalar IntersectionExampleScenario.node[687].nic.mac1609_4 	TimesIntoBackoff 	0
scalar IntersectionExampleScenario.node[687].nic.mac1609_4 	SlotsBackoff 	0
scalar IntersectionExampleScenario.node[687].nic.mac1609_4 	NumInternalContention 	0
scalar IntersectionExampleScenario.node[687].nic.mac1609_4 	totalBusyTime 	0
scalar IntersectionExampleScenario.node[687].veinsmobility 	startTime 	1796
scalar IntersectionExampleScenario.node[687].veinsmobility 	totalTime 	4
scalar IntersectionExampleScenario.node[687].veinsmobility 	stopTime 	1800
scalar IntersectionExampleScenario.node[687].veinsmobility 	minSpeed 	5.6500000953674
scalar IntersectionExampleScenario.node[687].veinsmobility 	maxSpeed 	15.02499961853
scalar IntersectionExampleScenario.node[687].veinsmobility 	totalDistance 	40.099975585938
scalar IntersectionExampleScenario.node[687].veinsmobility 	totalCO2Emission 	30.650591168342
scalar IntersectionExampleScenario.node[688].appl 	VehicleRemoved 	0
scalar IntersectionExampleScenario.node[688].appl 	ArrivedAtDest 	0
scalar IntersectionExampleScenario.node[688].appl 	IntersectionEnterTime 	1799
scalar IntersectionExampleScenario.node[688].appl 	IntersectionExitTime 	-1
scalar IntersectionExampleScenario.node[688].appl 	NumberOfCollisions 	0
scalar IntersectionExampleScenario.node[688].nic.phy80211p 	busyTime 	0
scalar IntersectionExampleScenario.node[688].nic.mac1609_4 	ReceivedUnicastPackets 	0
scalar IntersectionExampleScenario.node[688].nic.mac1609_4 	ReceivedBroadcasts 	0
scalar IntersectionExampleScenario.node[688].nic.mac1609_4 	SentPackets 	0
scalar IntersectionExampleScenario.node[688].nic.mac1609_4 	SNIRLostPackets 	0
scalar IntersectionExampleScenario.node[688].nic.mac1609_4 	RXTXLostPackets 	0
scalar IntersectionExampleScenario.node[688].nic.mac1609_4 	TotalLostPackets 	0
scalar IntersectionExampleScenario.node[688].nic.mac1609_4 	DroppedPacketsInMac 	0
scalar IntersectionExampleScenario.node[688].nic.mac1609_4 	TooLittleTime 	0
scalar IntersectionExampleScenario.node[688].nic.mac1609_4 	TimesIntoBackoff 	0
scalar IntersectionExampleScenario.node[688].nic.mac1609_4 	SlotsBackoff 	0
scalar IntersectionExampleScenario.node[688].nic.mac1609_4 	NumInternalContention 	0
scalar IntersectionExampleScenario.node[688].nic.mac1609_4 	totalBusyTime 	0
scalar IntersectionExampleScenario.node[688].veinsmobility 	startTime 	1799
scalar IntersectionExampleScenario.node[688].veinsmobility 	totalTime 	1
scalar IntersectionExampleScenario.node[688].veinsmobility 	stopTime 	1800
scalar IntersectionExampleScenario.node[688].veinsmobility 	minSpeed 	5.6500000953674
scalar IntersectionExampleScenario.node[688].veinsmobility 	maxSpeed 	7.5250000953674
scalar IntersectionExampleScenario.node[688].veinsmobility 	totalDistance 	6.2750244140625
scalar IntersectionExampleScenario.node[688].veinsmobility 	totalCO2Emission 	4.2232135025359
