file 23724457 1591383031                                        
version 2
run nodebug-1-20200605-14:46:20-11144
attr configname nodebug
attr datetime 20200605-14:46:20
attr experiment nodebug
attr inifile omnetpp.ini
attr iterationvars ""
attr iterationvars2 $repetition=1
attr measurement ""
attr network "\"org.car2x.veins.modules.application.ExtTraCIScenarioManagerLaunchd.IntersectionExampleScenario\""
attr processid 11144
attr repetition 1
attr replication #1
attr resultdir results
attr runnumber 1
attr seedset 1
param **.coreDebug false
param **.debug false
param *.**.nic.mac1609_4.bitrate 18Mbps
param *.**.nic.mac1609_4.txPower 20mW
param *.**.nic.mac1609_4.useServiceChannel false
param *.**.nic.phy80211p.analogueModels "xmldoc(\"config.xml\")"
param *.**.nic.phy80211p.decider "xmldoc(\"config.xml\")"
param *.**.nic.phy80211p.sensitivity -89dBm
param *.**.nic.phy80211p.thermalNoise -110dBm
param *.**.nic.phy80211p.usePropagationDelay true
param *.**.nic.phy80211p.useThermalNoise true
param *.annotations.draw false
param *.connectionManager.alpha 2.0
param *.connectionManager.carrierFrequency "5.890e9 Hz"
param *.connectionManager.pMax 20mW
param *.connectionManager.sat -89dBm
param *.connectionManager.sendDirect true
param *.manager.autoShutdown true
param *.manager.host "\"localhost\""
param *.manager.launchConfig "xmldoc(\"paramics.launchd.xml\")"
param *.manager.margin 25
param *.manager.moduleDisplayString "\"\""
param *.manager.moduleName "\"node\""
param *.manager.moduleType "\"org.car2x.veins.nodes.Car\""
param *.manager.port 9999
param *.manager.updateInterval 250ms
param *.node[*0].veinsmobility.accidentCount 0
param *.node[*0].veinsmobility.accidentDuration 30s
param *.node[*0].veinsmobility.accidentStart 75s
param *.node[*].appl.LiderSelectZoneRadio 55.0
param *.node[*].appl.ShareDataZoneRadio 110.0
param *.node[*].appl.TiempoSemaforo 30.0
param *.node[*].appl.beaconInterval 1s
param *.node[*].appl.beaconPriority 3
param *.node[*].appl.dataOnSch false
param *.node[*].appl.dataPriority 2
param *.node[*].appl.debug false
param *.node[*].appl.headerLength "256 bit"
param *.node[*].appl.maxOffset 0.005s
param *.node[*].appl.sendBeacons false
param *.node[*].appl.sendData true
param *.node[*].applType "\"Dummy\""
param *.node[*].mobilityType "\"TraCIMobility\""
param *.node[*].mobilityType.debug true
param *.node[*].veinsmobility.x 0
param *.node[*].veinsmobility.y 0
param *.node[*].veinsmobility.z 1.895
param *.node[*].veinsmobilityType "\"org.car2x.veins.modules.mobility.traci.TraCIMobility\""
param *.node[*].veinsmobilityType.debug true
param *.playgroundSizeX 8500m
param *.playgroundSizeY 8500m
param *.playgroundSizeZ 50m
param *.world.use2D false
param *.world.useTorus false

vector 2  IntersectionExampleScenario.manager  vehiclesinsim  ETV
attr type  int
vector 3  IntersectionExampleScenario.manager  realtime  ETV
attr type  int
attr unit  s
vector 6  IntersectionExampleScenario.node[0].veinsmobility  posx  ETV
vector 7  IntersectionExampleScenario.node[0].veinsmobility  posy  ETV
vector 8  IntersectionExampleScenario.node[0].veinsmobility  speed  ETV
vector 9  IntersectionExampleScenario.node[0].veinsmobility  acceleration  ETV
vector 10  IntersectionExampleScenario.node[0].veinsmobility  co2emission  ETV
vector 13  IntersectionExampleScenario.node[1].veinsmobility  posx  ETV
vector 14  IntersectionExampleScenario.node[1].veinsmobility  posy  ETV
vector 15  IntersectionExampleScenario.node[1].veinsmobility  speed  ETV
vector 16  IntersectionExampleScenario.node[1].veinsmobility  acceleration  ETV
vector 17  IntersectionExampleScenario.node[1].veinsmobility  co2emission  ETV
vector 20  IntersectionExampleScenario.node[2].veinsmobility  posx  ETV
vector 21  IntersectionExampleScenario.node[2].veinsmobility  posy  ETV
vector 22  IntersectionExampleScenario.node[2].veinsmobility  speed  ETV
vector 27  IntersectionExampleScenario.node[3].veinsmobility  posx  ETV
vector 28  IntersectionExampleScenario.node[3].veinsmobility  posy  ETV
vector 23  IntersectionExampleScenario.node[2].veinsmobility  acceleration  ETV
vector 24  IntersectionExampleScenario.node[2].veinsmobility  co2emission  ETV
vector 29  IntersectionExampleScenario.node[3].veinsmobility  speed  ETV
vector 30  IntersectionExampleScenario.node[3].veinsmobility  acceleration  ETV
vector 31  IntersectionExampleScenario.node[3].veinsmobility  co2emission  ETV
vector 34  IntersectionExampleScenario.node[4].veinsmobility  posx  ETV
vector 35  IntersectionExampleScenario.node[4].veinsmobility  posy  ETV
vector 36  IntersectionExampleScenario.node[4].veinsmobility  speed  ETV
vector 37  IntersectionExampleScenario.node[4].veinsmobility  acceleration  ETV
vector 38  IntersectionExampleScenario.node[4].veinsmobility  co2emission  ETV
vector 41  IntersectionExampleScenario.node[5].veinsmobility  posx  ETV
vector 42  IntersectionExampleScenario.node[5].veinsmobility  posy  ETV
vector 43  IntersectionExampleScenario.node[5].veinsmobility  speed  ETV
vector 44  IntersectionExampleScenario.node[5].veinsmobility  acceleration  ETV
vector 45  IntersectionExampleScenario.node[5].veinsmobility  co2emission  ETV
vector 48  IntersectionExampleScenario.node[6].veinsmobility  posx  ETV
vector 49  IntersectionExampleScenario.node[6].veinsmobility  posy  ETV
vector 50  IntersectionExampleScenario.node[6].veinsmobility  speed  ETV
vector 51  IntersectionExampleScenario.node[6].veinsmobility  acceleration  ETV
vector 52  IntersectionExampleScenario.node[6].veinsmobility  co2emission  ETV
vector 55  IntersectionExampleScenario.node[7].veinsmobility  posx  ETV
vector 56  IntersectionExampleScenario.node[7].veinsmobility  posy  ETV
vector 57  IntersectionExampleScenario.node[7].veinsmobility  speed  ETV
vector 62  IntersectionExampleScenario.node[8].veinsmobility  posx  ETV
vector 63  IntersectionExampleScenario.node[8].veinsmobility  posy  ETV
vector 58  IntersectionExampleScenario.node[7].veinsmobility  acceleration  ETV
vector 59  IntersectionExampleScenario.node[7].veinsmobility  co2emission  ETV
vector 64  IntersectionExampleScenario.node[8].veinsmobility  speed  ETV
vector 69  IntersectionExampleScenario.node[9].veinsmobility  posx  ETV
vector 70  IntersectionExampleScenario.node[9].veinsmobility  posy  ETV
vector 65  IntersectionExampleScenario.node[8].veinsmobility  acceleration  ETV
vector 66  IntersectionExampleScenario.node[8].veinsmobility  co2emission  ETV
vector 71  IntersectionExampleScenario.node[9].veinsmobility  speed  ETV
vector 72  IntersectionExampleScenario.node[9].veinsmobility  acceleration  ETV
vector 73  IntersectionExampleScenario.node[9].veinsmobility  co2emission  ETV
vector 76  IntersectionExampleScenario.node[10].veinsmobility  posx  ETV
vector 77  IntersectionExampleScenario.node[10].veinsmobility  posy  ETV
vector 78  IntersectionExampleScenario.node[10].veinsmobility  speed  ETV
vector 79  IntersectionExampleScenario.node[10].veinsmobility  acceleration  ETV
vector 80  IntersectionExampleScenario.node[10].veinsmobility  co2emission  ETV
10	7114 4518 17 1704 3 43.25 162 0.973 11.36141391502 496.04206152594 2597.598836304
9	11632 3910 17 1704 3 43.25 162 -4.1636962890625 2.5 36.813589096069 274.27251214115
8	15542 4230 14 1704 2.75 43.25 163 5.6500000953674 15.25 2179.8608140945 30364.53085435
7	19772 4568 11 1704 2.5 43.25 164 237.57897949219 483.14999389648 70903.1769104 31591672.263054
6	24340 4540 11 1704 2.5 43.25 164 184.17810058594 483.15948486328 65184.381286621 27671739.513254
vector 83  IntersectionExampleScenario.node[11].veinsmobility  posx  ETV
vector 84  IntersectionExampleScenario.node[11].veinsmobility  posy  ETV
vector 85  IntersectionExampleScenario.node[11].veinsmobility  speed  ETV
vector 86  IntersectionExampleScenario.node[11].veinsmobility  acceleration  ETV
vector 87  IntersectionExampleScenario.node[11].veinsmobility  co2emission  ETV
vector 90  IntersectionExampleScenario.node[12].veinsmobility  posx  ETV
vector 91  IntersectionExampleScenario.node[12].veinsmobility  posy  ETV
vector 92  IntersectionExampleScenario.node[12].veinsmobility  speed  ETV
vector 93  IntersectionExampleScenario.node[12].veinsmobility  acceleration  ETV
vector 94  IntersectionExampleScenario.node[12].veinsmobility  co2emission  ETV
vector 97  IntersectionExampleScenario.node[13].veinsmobility  posx  ETV
vector 98  IntersectionExampleScenario.node[13].veinsmobility  posy  ETV
vector 99  IntersectionExampleScenario.node[13].veinsmobility  speed  ETV
vector 100  IntersectionExampleScenario.node[13].veinsmobility  acceleration  ETV
vector 101  IntersectionExampleScenario.node[13].veinsmobility  co2emission  ETV
vector 104  IntersectionExampleScenario.node[14].veinsmobility  posx  ETV
vector 105  IntersectionExampleScenario.node[14].veinsmobility  posy  ETV
vector 106  IntersectionExampleScenario.node[14].veinsmobility  speed  ETV
vector 107  IntersectionExampleScenario.node[14].veinsmobility  acceleration  ETV
vector 108  IntersectionExampleScenario.node[14].veinsmobility  co2emission  ETV
vector 111  IntersectionExampleScenario.node[15].veinsmobility  posx  ETV
vector 112  IntersectionExampleScenario.node[15].veinsmobility  posy  ETV
vector 113  IntersectionExampleScenario.node[15].veinsmobility  speed  ETV
vector 114  IntersectionExampleScenario.node[15].veinsmobility  acceleration  ETV
vector 115  IntersectionExampleScenario.node[15].veinsmobility  co2emission  ETV
vector 118  IntersectionExampleScenario.node[16].veinsmobility  posx  ETV
vector 119  IntersectionExampleScenario.node[16].veinsmobility  posy  ETV
vector 120  IntersectionExampleScenario.node[16].veinsmobility  speed  ETV
vector 121  IntersectionExampleScenario.node[16].veinsmobility  acceleration  ETV
vector 122  IntersectionExampleScenario.node[16].veinsmobility  co2emission  ETV
38	31213 4724 275 3353 19 60 165 0.973 11.200708441096 489.53123084703 2471.7711966845
37	35937 4186 275 3353 19 60 165 -3.5762786865234 2.5 35.455564498901 261.22151650358
36	40123 4625 264 3353 18.75 60 166 5.6500000953674 15.02499961853 2187.5217628479 29919.224123365
35	44748 4916 253 3353 18.5 60 167 184.17810058594 483.32922363281 66449.597473145 28225566.674603
34	49664 4936 253 3353 18.5 60 167 486.85000610352 734.1283416748 89937.700820923 49410720.855207
vector 125  IntersectionExampleScenario.node[17].veinsmobility  posx  ETV
vector 126  IntersectionExampleScenario.node[17].veinsmobility  posy  ETV
vector 127  IntersectionExampleScenario.node[17].veinsmobility  speed  ETV
vector 132  IntersectionExampleScenario.node[18].veinsmobility  posx  ETV
vector 133  IntersectionExampleScenario.node[18].veinsmobility  posy  ETV
vector 128  IntersectionExampleScenario.node[17].veinsmobility  acceleration  ETV
vector 129  IntersectionExampleScenario.node[17].veinsmobility  co2emission  ETV
vector 134  IntersectionExampleScenario.node[18].veinsmobility  speed  ETV
vector 135  IntersectionExampleScenario.node[18].veinsmobility  acceleration  ETV
vector 136  IntersectionExampleScenario.node[18].veinsmobility  co2emission  ETV
vector 139  IntersectionExampleScenario.node[19].veinsmobility  posx  ETV
vector 140  IntersectionExampleScenario.node[19].veinsmobility  posy  ETV
vector 141  IntersectionExampleScenario.node[19].veinsmobility  speed  ETV
vector 142  IntersectionExampleScenario.node[19].veinsmobility  acceleration  ETV
vector 143  IntersectionExampleScenario.node[19].veinsmobility  co2emission  ETV
59	55773 4573 1055 5070 34.75 74.25 159 0.973 11.810082123732 508.49538687659 2854.0891032743
58	60346 4284 1055 5070 34.75 74.25 159 -3.5987892150879 2.5 38.511121749878 289.97413352837
57	64630 4471 1040 5070 34.5 74.25 160 5.6500000953674 15.875 2187.4261054993 31251.807394893
56	69101 4810 1025 5070 34.25 74.25 161 184.17810058594 483.33880615234 63994.011108398 27176069.18173
55	73911 4811 1025 5070 34.25 74.25 161 486.85000610352 733.91084289551 86585.107162476 47495228.222459
vector 146  IntersectionExampleScenario.node[20].veinsmobility  posx  ETV
vector 147  IntersectionExampleScenario.node[20].veinsmobility  posy  ETV
vector 148  IntersectionExampleScenario.node[20].veinsmobility  speed  ETV
vector 149  IntersectionExampleScenario.node[20].veinsmobility  acceleration  ETV
vector 150  IntersectionExampleScenario.node[20].veinsmobility  co2emission  ETV
vector 153  IntersectionExampleScenario.node[21].veinsmobility  posx  ETV
vector 154  IntersectionExampleScenario.node[21].veinsmobility  posy  ETV
73	79263 5008 1127 5605 35.75 79 174 0.973 11.099640048765 498.26698589817 2430.4317545791
72	84271 4765 1127 5605 35.75 79 174 -3.1914901733398 2.5 35.116056442261 237.3495349279
71	89036 4932 1108 5605 35.5 79 175 5.6500000953674 14.883192062378 2277.257569313 30776.67124768
70	93968 5256 1089 5605 35.25 79 176 162.00311279297 483.19964599609 68316.636169434 28722488.909607
69	99224 5262 1089 5605 35.25 79 176 486.85000610352 734.47981262207 94400.550506592 51637344.327257
vector 155  IntersectionExampleScenario.node[21].veinsmobility  speed  ETV
vector 156  IntersectionExampleScenario.node[21].veinsmobility  acceleration  ETV
vector 157  IntersectionExampleScenario.node[21].veinsmobility  co2emission  ETV
24	104727 6804 199 6287 17 84.5 271 0.973 11.648172402475 636.57980599478 3007.5362020753
23	111531 6196 199 6287 17 84.5 271 -7.1126251220703 4 37.662351608276 469.40991413758
22	117727 6394 192 6287 16.75 84.5 272 0 15.64999961853 2218.4003880024 31179.153746204
21	124121 8097 185 6287 16.5 84.5 273 235.04968261719 785.82187652588 139547.36292267 75570236.762002
20	132218 8120 185 6287 16.5 84.5 273 483.14999389648 483.14999389648 131899.94833374 63727459.232393
31	140338 7078 217 6535 17.5 86.5 277 0.973 11.519712662168 651.61898856724 2959.2422442207
30	147416 6374 217 6535 17.5 86.5 277 -4.5 2.5 38.341367721558 454.9696621661
29	153790 6833 208 6535 17.25 86.5 278 0 15.471047401428 2310.289714247 32354.744937093
28	160623 8285 199 6535 17 86.5 279 236.85552978516 809.56562805176 145788.21537018 80987905.717706
27	168908 8301 199 6535 17 86.5 279 483.14999389648 483.14999389648 134798.84829712 65128062.732006
vector 160  IntersectionExampleScenario.node[22].veinsmobility  posx  ETV
vector 161  IntersectionExampleScenario.node[22].veinsmobility  posy  ETV
vector 162  IntersectionExampleScenario.node[22].veinsmobility  speed  ETV
52	177435 6348 830 6847 30.5 89 235 0.973 11.810082123732 606.18339971683 3080.9207069203
51	183783 6681 830 6847 30.5 89 235 -3.9182577133179 2.5 39.699392318726 357.78784901029
50	190464 6737 817 6847 30.25 89 236 0 15.875 2176.8212740161 28850.986162625
49	197201 7070 804 6847 30 89 237 486.85000610352 785.82187652588 131656.805336 75024426.755141
48	204271 7087 804 6847 30 89 237 238.99536132812 483.14999389648 106619.93966675 48980983.27147
vector 167  IntersectionExampleScenario.node[23].veinsmobility  posx  ETV
vector 168  IntersectionExampleScenario.node[23].veinsmobility  posy  ETV
vector 163  IntersectionExampleScenario.node[22].veinsmobility  acceleration  ETV
vector 164  IntersectionExampleScenario.node[22].veinsmobility  co2emission  ETV
vector 169  IntersectionExampleScenario.node[23].veinsmobility  speed  ETV
vector 170  IntersectionExampleScenario.node[23].veinsmobility  acceleration  ETV
vector 171  IntersectionExampleScenario.node[23].veinsmobility  co2emission  ETV
vector 174  IntersectionExampleScenario.node[24].veinsmobility  posx  ETV
vector 175  IntersectionExampleScenario.node[24].veinsmobility  posy  ETV
vector 176  IntersectionExampleScenario.node[24].veinsmobility  speed  ETV
vector 177  IntersectionExampleScenario.node[24].veinsmobility  acceleration  ETV
vector 178  IntersectionExampleScenario.node[24].veinsmobility  co2emission  ETV
vector 181  IntersectionExampleScenario.node[25].veinsmobility  posx  ETV
vector 182  IntersectionExampleScenario.node[25].veinsmobility  posy  ETV
vector 183  IntersectionExampleScenario.node[25].veinsmobility  speed  ETV
vector 184  IntersectionExampleScenario.node[25].veinsmobility  acceleration  ETV
vector 185  IntersectionExampleScenario.node[25].veinsmobility  co2emission  ETV
vector 188  IntersectionExampleScenario.node[26].veinsmobility  posx  ETV
vector 189  IntersectionExampleScenario.node[26].veinsmobility  posy  ETV
vector 190  IntersectionExampleScenario.node[26].veinsmobility  speed  ETV
vector 191  IntersectionExampleScenario.node[26].veinsmobility  acceleration  ETV
vector 192  IntersectionExampleScenario.node[26].veinsmobility  co2emission  ETV
vector 195  IntersectionExampleScenario.node[27].veinsmobility  posx  ETV
vector 196  IntersectionExampleScenario.node[27].veinsmobility  posy  ETV
vector 197  IntersectionExampleScenario.node[27].veinsmobility  speed  ETV
vector 198  IntersectionExampleScenario.node[27].veinsmobility  acceleration  ETV
vector 199  IntersectionExampleScenario.node[27].veinsmobility  co2emission  ETV
vector 202  IntersectionExampleScenario.node[28].veinsmobility  posx  ETV
vector 203  IntersectionExampleScenario.node[28].veinsmobility  posy  ETV
vector 204  IntersectionExampleScenario.node[28].veinsmobility  speed  ETV
vector 205  IntersectionExampleScenario.node[28].veinsmobility  acceleration  ETV
vector 206  IntersectionExampleScenario.node[28].veinsmobility  co2emission  ETV
vector 209  IntersectionExampleScenario.node[29].veinsmobility  posx  ETV
vector 210  IntersectionExampleScenario.node[29].veinsmobility  posy  ETV
vector 211  IntersectionExampleScenario.node[29].veinsmobility  speed  ETV
vector 212  IntersectionExampleScenario.node[29].veinsmobility  acceleration  ETV
vector 213  IntersectionExampleScenario.node[29].veinsmobility  co2emission  ETV
66	214260 7166 1089 8810 35.25 106.25 285 0.97223939240464 11.810082123732 655.41275159457 3109.7171733661
65	221426 6433 1089 8810 35.25 106.25 285 -7.1630640029907 4 38.680875778198 476.87792498683
64	227859 6617 1072 8810 35 106.25 286 0 15.875 2184.2047655582 30861.615730234
63	234476 8565 1055 8810 34.75 106.25 287 486.85000610352 734.74661254883 147966.00222778 77406982.625212
62	243041 8627 1055 8810 34.75 106.25 287 486.63604736328 785.82187652588 154994.42868805 85829041.230271
17	251668 8693 180 8810 16.25 106.25 361 0.973 11.648172402475 736.63381000455 3135.8028447356
16	260361 7254 180 8810 16.25 106.25 361 -40.192100524902 4 38.511121749878 1965.0139100165
15	267615 7738 175 8810 16 106.25 362 0 15.64999961853 2212.6708164215 32033.327498202
14	275353 10843 170 8810 15.75 106.25 363 483.14999389648 483.14999389648 175383.44778442 84736511.726589
13	286196 10817 170 8810 15.75 106.25 363 184.17810058594 733.9766998291 167673.3296051 81643276.603114
45	297013 8814 378 8918 21.25 107.25 345 0.973 11.810082123732 731.76881472693 3232.3230268245
44	305827 8493 378 8918 21.25 107.25 345 -3.9207534790039 2.5 40.887662887573 398.92948412014
43	314320 8582 365 8918 21 107.25 346 0 15.938349723816 2186.6065079663 30572.425550568
42	322902 10377 352 8918 20.75 107.25 347 236.61779785156 483.14999389648 159759.19897461 74665367.42982
41	333279 10343 352 8918 20.75 107.25 347 184.17810058594 483.14999389648 150406.2958374 67288678.901876
80	343622 7304 1625 9080 42.25 108.75 267 0.973 11.810082123732 627.21798770042 3029.9984621959
79	350926 7946 1625 9080 42.25 108.75 267 -3.8419682979584 2.5 38.511121749878 335.07042397952
78	358872 7758 1604 9080 42 108.75 268 0 15.875 2188.8313911986 29109.290590196
77	366630 8091 1583 9080 41.75 108.75 269 486.85000610352 734.60441589355 139215.70684814 73154575.382905
76	374721 8085 1583 9080 41.75 108.75 269 486.85000610352 785.82187652588 147281.73499298 82644671.360793
vector 216  IntersectionExampleScenario.node[30].veinsmobility  posx  ETV
vector 217  IntersectionExampleScenario.node[30].veinsmobility  posy  ETV
vector 218  IntersectionExampleScenario.node[30].veinsmobility  speed  ETV
vector 219  IntersectionExampleScenario.node[30].veinsmobility  acceleration  ETV
vector 220  IntersectionExampleScenario.node[30].veinsmobility  co2emission  ETV
108	383197 6415 2704 9304 54.25 110.75 227 0.973 11.648172402475 583.63553849315 2877.282422163
107	389612 6891 2704 9304 54.25 110.75 227 -3.6913876533508 2.5000004768372 38.171613693237 332.10086496867
106	396503 7043 2677 9304 54 110.75 228 0 15.64999961853 2206.5725736376 28858.974235104
105	403546 7137 2650 9304 53.75 110.75 229 483.14999389648 732.6923828125 119067.08947754 62995237.785738
104	410683 7105 2650 9304 53.75 110.75 229 184.17810058594 486.85000610352 94773.625183105 41148234.265664
94	417788 7431 1946 9585 46.25 113.25 269 0.97223939240464 11.648172402475 661.14593587905 3120.1513469742
93	425219 7379 1946 9585 46.25 113.25 269 -29.79207611084 4 38.680875778198 1339.3057771739
92	432598 7886 1923 9585 46 113.25 270 0 15.64999961853 2205.9085207414 28618.933603668
91	440484 8179 1900 9585 45.75 113.25 271 486.85000610352 734.68215942383 140182.78898621 73620501.236683
90	448663 8162 1900 9585 45.75 113.25 271 486.59979248047 792.02188110352 149758.50054932 84820674.59309
129	456825 5688 3748 9585 63.5 113.25 200 0.973 11.36141391502 557.15535443267 2838.364931179
128	462513 5710 3748 9585 63.5 113.25 200 -3.3934841156006 2.5000019073486 37.15309715271 343.15039855266
127	468223 5964 3719 9585 63.25 113.25 201 2.4398374557495 15.25 2189.8857274055 27786.699041504
126	474187 6302 3690 9585 63 113.25 202 235.66546630859 483.14999389648 89173.500946045 40400144.905109
125	480489 6276 3690 9585 63 113.25 202 184.17810058594 483.2248840332 81664.252349854 34834230.989693
136	486765 5690 3810 9690 64 114.25 202 0.973 12.309058872744 624.94485886443 3414.7340443306
135	492455 6039 3810 9690 64 114.25 202 -4.5 2.5 43.658071517944 420.44699143788
134	498494 6318 3779 9690 63.75 114.25 203 2.0637502670288 16.564517974854 2202.471278429 28899.364008875
133	504812 6372 3748 9690 63.5 114.25 204 237.87585449219 486.85000610352 90981.886169434 41619711.181765
132	511184 6366 3748 9690 63.5 114.25 204 483.14999389648 785.82187652588 114524.23888397 66133185.510415
143	517550 5951 3969 9890 65.25 116.25 205 0.973 11.200708441096 586.49301483406 2818.568238835
142	523501 6320 3969 9890 65.25 116.25 205 -4.5 2.5 37.15309715271 465.35348453844
141	529821 6411 3936 9890 65 116.25 206 2.4142596721649 15.091420173645 2255.6927483082 29125.179578665
140	536232 6473 3903 9890 64.75 116.25 207 237.95239257812 483.14999389648 91733.882537842 41669650.854537
139	542705 6464 3903 9890 64.75 116.25 207 164.94219970703 483.14999389648 82575.427856445 35091376.05457
vector 223  IntersectionExampleScenario.node[31].veinsmobility  posx  ETV
vector 224  IntersectionExampleScenario.node[31].veinsmobility  posy  ETV
vector 225  IntersectionExampleScenario.node[31].veinsmobility  speed  ETV
150	549395 4814 5344 10041 76.75 117.75 165 0.973 12.099024792222 550.14121911109 3222.6153861753
149	554209 4700 5344 10041 76.75 117.75 165 -4.5 2.5 41.566686630249 312.26608463953
148	558909 4890 5315 10041 76.5 117.75 166 5.6500000953674 16.27499961853 2175.4926233292 30258.374095295
147	563799 5235 5286 10041 76.25 117.75 167 239.03472900391 483.14999389648 72996.140899658 32795464.021824
146	569034 5207 5286 10041 76.25 117.75 167 184.17810058594 483.14999389648 66446.384429932 28154449.552741
vector 230  IntersectionExampleScenario.node[32].veinsmobility  posx  ETV
vector 231  IntersectionExampleScenario.node[32].veinsmobility  posy  ETV
vector 226  IntersectionExampleScenario.node[31].veinsmobility  acceleration  ETV
vector 227  IntersectionExampleScenario.node[31].veinsmobility  co2emission  ETV
vector 232  IntersectionExampleScenario.node[32].veinsmobility  speed  ETV
vector 233  IntersectionExampleScenario.node[32].veinsmobility  acceleration  ETV
vector 234  IntersectionExampleScenario.node[32].veinsmobility  co2emission  ETV
164	574797 4905 6880 11186 89.25 128.75 159 0.973 11.810082123732 510.17914445071 2860.4367137133
163	579702 4587 6880 11186 89.25 128.75 159 -3.4376449584961 2.5 38.850629806519 284.11421588718
162	584289 4803 6847 11186 89 128.75 160 5.6500000953674 15.875 2192.1818733215 31419.819843193
161	589092 5146 6814 11186 88.75 128.75 161 486.85000610352 735.1961517334 86629.537796021 47552300.987776
160	594238 5147 6814 11186 88.75 128.75 161 486.85000610352 785.82187652588 92140.295082092 54471091.923718
185	599385 4760 7184 11278 91.5 129.75 154 0.973 12.26218747632 529.19751044127 3183.4403081973
184	604145 4601 7184 11278 91.5 129.75 154 -3.6137962341309 2.5 41.736440658569 312.94622830939
183	608746 4631 7151 11278 91.25 129.75 155 5.6500000953674 16.5 2186.15533638 32500.510667754
182	613377 4984 7117 11278 91 129.75 156 236.42413330078 483.14999389648 67559.876739502 30145285.584433
181	618361 4978 7117 11278 91 129.75 156 184.17810058594 483.19650268555 61986.383239746 26332851.061832
vector 237  IntersectionExampleScenario.node[33].veinsmobility  posx  ETV
vector 238  IntersectionExampleScenario.node[33].veinsmobility  posy  ETV
vector 239  IntersectionExampleScenario.node[33].veinsmobility  speed  ETV
vector 240  IntersectionExampleScenario.node[33].veinsmobility  acceleration  ETV
vector 241  IntersectionExampleScenario.node[33].veinsmobility  co2emission  ETV
192	623730 4951 7564 11605 94.5 133.5 157 0.973 11.648172402475 478.33031520416 2521.9705647356
191	628681 4733 7564 11605 94.5 133.5 157 -3.2431373596191 2.5 38.341367721558 195.29124300776
190	633414 4867 7532 11605 94.25 133.5 158 5.6500000953674 15.64999961853 2264.4915590286 33092.05549533
189	638281 5128 7499 11605 94 133.5 159 483.14999389648 483.14999389648 76820.849029541 37115992.739745
188	643409 5086 7499 11605 94 133.5 159 171.40313720703 732.29479980469 70255.008514404 35445368.441121
vector 244  IntersectionExampleScenario.node[34].veinsmobility  posx  ETV
vector 245  IntersectionExampleScenario.node[34].veinsmobility  posy  ETV
vector 246  IntersectionExampleScenario.node[34].veinsmobility  speed  ETV
vector 247  IntersectionExampleScenario.node[34].veinsmobility  acceleration  ETV
vector 248  IntersectionExampleScenario.node[34].veinsmobility  co2emission  ETV
vector 251  IntersectionExampleScenario.node[35].veinsmobility  posx  ETV
vector 252  IntersectionExampleScenario.node[35].veinsmobility  posy  ETV
vector 253  IntersectionExampleScenario.node[35].veinsmobility  speed  ETV
vector 254  IntersectionExampleScenario.node[35].veinsmobility  acceleration  ETV
vector 255  IntersectionExampleScenario.node[35].veinsmobility  co2emission  ETV
vector 258  IntersectionExampleScenario.node[36].veinsmobility  posx  ETV
vector 259  IntersectionExampleScenario.node[36].veinsmobility  posy  ETV
vector 260  IntersectionExampleScenario.node[36].veinsmobility  speed  ETV
vector 261  IntersectionExampleScenario.node[36].veinsmobility  acceleration  ETV
vector 262  IntersectionExampleScenario.node[36].veinsmobility  co2emission  ETV
vector 265  IntersectionExampleScenario.node[37].veinsmobility  posx  ETV
vector 266  IntersectionExampleScenario.node[37].veinsmobility  posy  ETV
vector 267  IntersectionExampleScenario.node[37].veinsmobility  speed  ETV
vector 268  IntersectionExampleScenario.node[37].veinsmobility  acceleration  ETV
vector 269  IntersectionExampleScenario.node[37].veinsmobility  co2emission  ETV
vector 272  IntersectionExampleScenario.node[38].veinsmobility  posx  ETV
vector 273  IntersectionExampleScenario.node[38].veinsmobility  posy  ETV
87	650209 9257 1879 12184 45.5 140.5 381 0.973 12.26218747632 773.47583059199 3467.7285156053
86	659466 8150 1879 12184 45.5 140.5 381 -22.220722198486 4 41.396924972534 920.4565705352
85	667616 8231 1858 12184 45.25 140.5 382 0 16.5 2170.13235569 32051.065845833
84	675847 11724 1837 12184 45 140.5 383 184.17810058594 483.36395263672 168971.06082153 76765542.242537
83	687571 11672 1837 12184 45 140.5 383 486.85000610352 731.48248291016 194174.52288818 99539899.427497
vector 274  IntersectionExampleScenario.node[38].veinsmobility  speed  ETV
vector 275  IntersectionExampleScenario.node[38].veinsmobility  acceleration  ETV
vector 276  IntersectionExampleScenario.node[38].veinsmobility  co2emission  ETV
vector 279  IntersectionExampleScenario.node[39].veinsmobility  posx  ETV
vector 280  IntersectionExampleScenario.node[39].veinsmobility  posy  ETV
vector 281  IntersectionExampleScenario.node[39].veinsmobility  speed  ETV
vector 282  IntersectionExampleScenario.node[39].veinsmobility  acceleration  ETV
vector 283  IntersectionExampleScenario.node[39].veinsmobility  co2emission  ETV
101	699875 9997 2525 12555 52.5 144.25 368 0.973 11.648172402475 724.47359925081 3026.4972130924
100	709872 10091 2525 12555 52.5 144.25 368 -3.7980492115021 2.5 38.171613693237 333.89363769273
99	719963 9713 2500 12555 52.25 144.25 369 0 15.64999961853 2186.6311379224 28761.209667881
98	729676 11337 2475 12555 52 144.25 370 184.17810058594 483.22979736328 160548.38983154 71807307.99215
97	741013 11378 2475 12555 52 144.25 370 486.85000610352 733.71455383301 188388.05924988 97088024.144672
115	752391 10284 2816 12739 55.25 146.25 365 0.973 11.450879080643 727.61712927502 2952.1718059918
114	762675 10591 2816 12739 55.25 146.25 365 -4.5 2.5000004768372 37.32285118103 375.6963266089
113	773266 10539 2787 12739 55 146.25 366 0 15.375 2259.7123832628 29046.398506728
112	783805 11636 2758 12739 54.75 146.25 367 169.95465087891 486.87341308594 156332.86657715 68975837.737183
111	795441 11673 2758 12739 54.75 146.25 367 237.64892578125 486.85000610352 170188.947052 80135237.410841
vector 286  IntersectionExampleScenario.node[40].veinsmobility  posx  ETV
vector 287  IntersectionExampleScenario.node[40].veinsmobility  posy  ETV
vector 288  IntersectionExampleScenario.node[40].veinsmobility  speed  ETV
vector 289  IntersectionExampleScenario.node[40].veinsmobility  acceleration  ETV
vector 290  IntersectionExampleScenario.node[40].veinsmobility  co2emission  ETV
122	807505 10435 3353 13098 60 150 361 0.973 11.200708441096 711.6744733399 2858.2051971285
121	817940 10698 3353 13098 60 150 361 -4.5 2.5 35.455564498901 423.62360433626
120	828638 10724 3323 13098 59.75 150 362 0 15.02499961853 2220.4569064435 27840.91638097
119	839362 11552 3294 13098 59.5 150 363 176.45910644531 483.14999389648 153750.77435303 67309361.443554
118	850914 11562 3294 13098 59.5 150 363 486.85000610352 734.3540802002 185376.89234924 95887267.240837
171	862476 7291 6949 13298 89.75 152 250 0.973 12.099024792222 629.98870625796 3301.0077897607
170	869767 7749 6949 13298 89.75 152 250 -3.9650268554688 2.5 41.227170944214 346.68186182635
169	877516 7876 6915 13298 89.5 152 251 0 16.27499961853 2215.1185291 29660.881898498
168	885392 8125 6880 13298 89.25 152 252 184.17810058594 732.14031982422 111068.81437683 52987131.523362
167	893517 8160 6880 13298 89.25 152 252 486.85000610352 486.85003662109 122686.20159912 59729778.027064
157	901677 8636 5667 13323 79.5 152.25 292 0.973 11.200708441096 645.55555970966 2757.2564816269
156	910313 9083 5667 13323 79.5 152.25 292 -3.8334414958954 2.5 37.15309715271 318.49473406624
155	919396 9084 5636 13323 79.25 152.25 293 0 15.02499961853 2187.8799380977 27619.295795357
154	928480 9423 5605 13323 79 152.25 294 184.17810058594 483.15905761719 122529.02883911 52985612.286163
153	937903 9455 5605 13323 79 152.25 294 486.85000610352 733.83532714844 151529.18890381 79236731.897449
vector 293  IntersectionExampleScenario.node[41].veinsmobility  posx  ETV
vector 294  IntersectionExampleScenario.node[41].veinsmobility  posy  ETV
vector 295  IntersectionExampleScenario.node[41].veinsmobility  speed  ETV
vector 296  IntersectionExampleScenario.node[41].veinsmobility  acceleration  ETV
vector 297  IntersectionExampleScenario.node[41].veinsmobility  co2emission  ETV
178	947749 7678 7051 13651 90.5 155.5 261 0.973 11.450879080643 644.38151325153 3076.5639539408
177	955427 8009 7051 13651 90.5 155.5 261 -4.5 2.5000009536743 37.32285118103 466.07173696535
176	963436 7949 7017 13651 90.25 155.5 262 0 15.375 2296.7587708533 29683.089974198
175	971385 8493 6982 13651 90 155.5 263 161.1796875 486.87173461914 105791.42398071 44810299.081379
174	979878 8519 6982 13651 90 155.5 263 237.53747558594 486.85000610352 119548.61981201 55479024.691422
213	988397 6342 8756 13951 105.75 158.5 212 0.973 11.36141391502 591.59271952326 3089.6813936322
212	994739 6365 8756 13951 105.75 158.5 212 -2.9244956970215 2.5 36.134572982788 399.02849123252
211	1001104 6644 8729 13951 105.5 158.5 213 0.94205796718597 15.25 2188.8166080713 27033.605282766
210	1007748 6974 8702 13951 105.25 158.5 214 184.17810058594 483.15399169922 85957.948120117 36336171.449348
209	1014722 7006 8702 13951 105.25 158.5 214 486.85000610352 734.77952575684 112770.99539185 60498210.134382
vector 300  IntersectionExampleScenario.node[42].veinsmobility  posx  ETV
vector 301  IntersectionExampleScenario.node[42].veinsmobility  posy  ETV
vector 302  IntersectionExampleScenario.node[42].veinsmobility  speed  ETV
vector 303  IntersectionExampleScenario.node[42].veinsmobility  acceleration  ETV
vector 304  IntersectionExampleScenario.node[42].veinsmobility  co2emission  ETV
220	1022119 6226 9246 14242 110.25 161.25 205 0.973 11.200708441096 549.54707718068 2697.5261079382
219	1028345 6081 9246 14242 110.25 161.25 205 -4.5 2.5 35.795072555542 378.47062863858
218	1034426 6472 9217 14242 110 161.25 206 1.3616505861282 15.02499961853 2191.7166951895 27396.383484492
217	1040898 6777 9188 14242 109.75 161.25 207 184.17810058594 483.14999389648 83146.883178711 35207354.255582
216	1047675 6775 9188 14242 109.75 161.25 207 486.85000610352 735.51268005371 109461.37406921 58955748.401402
vector 307  IntersectionExampleScenario.node[43].veinsmobility  posx  ETV
vector 308  IntersectionExampleScenario.node[43].veinsmobility  posy  ETV
vector 314  IntersectionExampleScenario.node[44].veinsmobility  posx  ETV
vector 315  IntersectionExampleScenario.node[44].veinsmobility  posy  ETV
vector 309  IntersectionExampleScenario.node[43].veinsmobility  speed  ETV
vector 310  IntersectionExampleScenario.node[43].veinsmobility  acceleration  ETV
vector 311  IntersectionExampleScenario.node[43].veinsmobility  co2emission  ETV
vector 316  IntersectionExampleScenario.node[44].veinsmobility  speed  ETV
vector 317  IntersectionExampleScenario.node[44].veinsmobility  acceleration  ETV
vector 318  IntersectionExampleScenario.node[44].veinsmobility  co2emission  ETV
vector 321  IntersectionExampleScenario.node[45].veinsmobility  posx  ETV
vector 322  IntersectionExampleScenario.node[45].veinsmobility  posy  ETV
vector 328  IntersectionExampleScenario.node[46].veinsmobility  posx  ETV
vector 329  IntersectionExampleScenario.node[46].veinsmobility  posy  ETV
vector 323  IntersectionExampleScenario.node[45].veinsmobility  speed  ETV
vector 335  IntersectionExampleScenario.node[47].veinsmobility  posx  ETV
vector 336  IntersectionExampleScenario.node[47].veinsmobility  posy  ETV
vector 324  IntersectionExampleScenario.node[45].veinsmobility  acceleration  ETV
vector 325  IntersectionExampleScenario.node[45].veinsmobility  co2emission  ETV
vector 330  IntersectionExampleScenario.node[46].veinsmobility  speed  ETV
vector 331  IntersectionExampleScenario.node[46].veinsmobility  acceleration  ETV
vector 332  IntersectionExampleScenario.node[46].veinsmobility  co2emission  ETV
vector 337  IntersectionExampleScenario.node[47].veinsmobility  speed  ETV
vector 338  IntersectionExampleScenario.node[47].veinsmobility  acceleration  ETV
vector 339  IntersectionExampleScenario.node[47].veinsmobility  co2emission  ETV
vector 342  IntersectionExampleScenario.node[48].veinsmobility  posx  ETV
vector 343  IntersectionExampleScenario.node[48].veinsmobility  posy  ETV
vector 344  IntersectionExampleScenario.node[48].veinsmobility  speed  ETV
vector 345  IntersectionExampleScenario.node[48].veinsmobility  acceleration  ETV
vector 346  IntersectionExampleScenario.node[48].veinsmobility  co2emission  ETV
vector 349  IntersectionExampleScenario.node[49].veinsmobility  posx  ETV
vector 350  IntersectionExampleScenario.node[49].veinsmobility  posy  ETV
vector 351  IntersectionExampleScenario.node[49].veinsmobility  speed  ETV
vector 352  IntersectionExampleScenario.node[49].veinsmobility  acceleration  ETV
vector 353  IntersectionExampleScenario.node[49].veinsmobility  co2emission  ETV
234	1057187 6207 10120 15497 118.5 170.25 208 0.973 11.648172402475 581.27323372981 3015.8743187246
233	1063394 5880 10120 15497 118.5 170.25 208 -6.8336386680603 4 38.341367721558 483.46963034347
232	1069274 6031 10093 15497 118.25 170.25 209 0 15.64999961853 2200.3804193735 31124.164901407
231	1075305 6921 10066 15497 118 170.25 210 483.14999389648 785.82187652588 116395.16837311 66492205.817991
230	1082226 6925 10066 15497 118 170.25 210 483.14999389648 732.70495605469 109836.44750977 58506415.628455
vector 356  IntersectionExampleScenario.node[50].veinsmobility  posx  ETV
vector 357  IntersectionExampleScenario.node[50].veinsmobility  posy  ETV
vector 358  IntersectionExampleScenario.node[50].veinsmobility  speed  ETV
vector 359  IntersectionExampleScenario.node[50].veinsmobility  acceleration  ETV
vector 360  IntersectionExampleScenario.node[50].veinsmobility  co2emission  ETV
vector 363  IntersectionExampleScenario.node[51].veinsmobility  posx  ETV
vector 364  IntersectionExampleScenario.node[51].veinsmobility  posy  ETV
vector 365  IntersectionExampleScenario.node[51].veinsmobility  speed  ETV
vector 366  IntersectionExampleScenario.node[51].veinsmobility  acceleration  ETV
vector 367  IntersectionExampleScenario.node[51].veinsmobility  co2emission  ETV
vector 370  IntersectionExampleScenario.node[52].veinsmobility  posx  ETV
vector 371  IntersectionExampleScenario.node[52].veinsmobility  posy  ETV
vector 372  IntersectionExampleScenario.node[52].veinsmobility  speed  ETV
vector 373  IntersectionExampleScenario.node[52].veinsmobility  acceleration  ETV
vector 374  IntersectionExampleScenario.node[52].veinsmobility  co2emission  ETV
276	1090324 4976 12234 17011 141 179.25 154 0.973 11.648172402475 470.76336111104 2462.8829942015
275	1095300 4552 12234 17011 141 179.25 154 -3.1964340209961 2.5 38.341367721558 191.50698189953
274	1099852 4885 12209 17011 140.75 179.25 155 5.6500000953674 15.64999961853 2217.1332035065 32350.133301773
273	1104737 5129 12184 17011 140.5 179.25 156 236.734375 785.82187652588 81337.366569519 46547903.090508
272	1109866 5148 12184 17011 140.5 179.25 156 483.14999389648 483.14999389648 75371.399047852 36415690.989939
vector 377  IntersectionExampleScenario.node[53].veinsmobility  posx  ETV
vector 378  IntersectionExampleScenario.node[53].veinsmobility  posy  ETV
vector 379  IntersectionExampleScenario.node[53].veinsmobility  speed  ETV
vector 380  IntersectionExampleScenario.node[53].veinsmobility  acceleration  ETV
vector 381  IntersectionExampleScenario.node[53].veinsmobility  co2emission  ETV
227	1115405 8276 10066 18467 118 192 297 0.973 11.810082123732 675.69970503911 3153.6634523684
226	1123681 7306 10066 18467 118 192 297 -9.3957595825195 4 39.869146347046 516.47579439765
225	1130987 7657 10041 18467 117.75 192 298 0 15.875 2184.2244033813 31335.481758312
224	1138644 9796 10015 18467 117.5 192 299 486.85000610352 734.37205505371 153642.91210938 80059663.089734
223	1148440 9854 10015 18467 117.5 192 299 486.63604736328 785.82187652588 160851.04317474 88665284.77735
vector 384  IntersectionExampleScenario.node[54].veinsmobility  posx  ETV
vector 385  IntersectionExampleScenario.node[54].veinsmobility  posy  ETV
199	1158444 9932 8220 18524 100.5 192.75 370 0.973 11.36141391502 721.04657381122 2935.9465501037
198	1168376 9024 8220 18524 100.5 192.75 370 -29.454879760742 4 36.134572982788 1216.287312006
197	1177400 8980 8195 18524 100.25 192.75 371 0 15.25 2179.0420770645 30082.131782675
196	1186380 12141 8170 18524 100 192.75 372 236.32275390625 483.14999389648 171227.6784668 80017050.962959
195	1198521 12172 8170 18524 100 192.75 372 184.17810058594 483.36395263672 163214.90963745 73886359.252824
vector 386  IntersectionExampleScenario.node[54].veinsmobility  speed  ETV
vector 387  IntersectionExampleScenario.node[54].veinsmobility  acceleration  ETV
vector 388  IntersectionExampleScenario.node[54].veinsmobility  co2emission  ETV
206	1210934 10416 8324 18587 101.5 193.5 369 0.973 11.54047740176 741.11415395256 3005.5493368432
205	1221350 9629 8324 18587 101.5 193.5 369 -4.5 2.5 37.15309715271 453.879998075
204	1230979 9955 8297 18587 101.25 193.5 370 0 15.5 2300.4607612938 31793.951540539
203	1240934 12176 8270 18587 101 193.5 371 483.14999389648 483.14999389648 179248.6477356 86603983.059406
202	1253110 12128 8270 18587 101 193.5 371 162.00311279297 732.36532592773 167957.32133484 80798730.810107
241	1265238 7762 11451 18755 131.75 195.5 256 0.973 11.36141391502 603.50264518207 2776.4252709388
240	1273000 8227 11451 18755 131.75 195.5 256 -3.9810762405396 2.5 36.813589096069 323.3714915454
239	1281227 8208 11428 18755 131.5 195.5 257 0 15.25 2182.57496503 28174.597362105
238	1289435 8508 11405 18755 131.25 195.5 258 486.85000610352 732.94737243652 133978.78839111 70673113.402406
237	1297943 8489 11405 18755 131.25 195.5 258 486.85000610352 785.82187652588 142000.3746109 80156664.308145
283	1306432 6608 12333 18839 142 196.5 219 0.973 10.756497587458 548.68888650109 2441.0845577383
282	1313040 6851 12333 18839 142 196.5 219 -3.9092123508453 2.5 34.606801986694 301.25014885721
281	1319891 7117 12308 18839 141.75 196.5 220 0 14.654211997986 2218.3558413759 28177.106876304
280	1327008 7293 12283 18839 141.5 196.5 221 483.14999389648 483.14999389648 106776.14865112 51588895.56908
279	1334301 7260 12283 18839 141.5 196.5 221 184.17810058594 733.98559570312 99389.422912598 49065317.480229
269	1341561 6980 12138 18986 140 198.25 234 0.973 11.200708441096 562.0689539382 2665.1006051936
268	1348541 7339 12138 18986 140 198.25 234 -3.735002040863 2.5000009536743 35.964826583862 314.51385599076
267	1355880 7452 12115 18986 139.75 198.25 235 0 15.140864372253 2066.8452803269 25280.106953476
266	1363332 7782 12092 18986 139.5 198.25 236 486.85000610352 734.11448669434 123461.29217529 65685621.90809
265	1371114 7756 12092 18986 139.5 198.25 236 486.84176635742 756.11563110352 129514.8131485 72539553.549032
290	1378870 6081 12973 19028 148.75 198.75 201 0.973 11.36141391502 571.35179865267 2834.1976473326
289	1384951 6112 12973 19028 148.75 198.75 201 -4.5 2.5 39.359884262085 371.38228124822
288	1391063 6342 12948 19028 148.5 198.75 202 2.5738456249237 15.550129890442 2184.7204270363 28092.981919126
287	1397405 6697 12923 19028 148.25 198.75 203 236.61730957031 483.14999389648 89995.891204834 40898556.500435
286	1404102 6670 12923 19028 148.25 198.75 203 184.17810058594 483.14999389648 81997.990509033 34924386.826925
vector 391  IntersectionExampleScenario.node[55].veinsmobility  posx  ETV
vector 392  IntersectionExampleScenario.node[55].veinsmobility  posy  ETV
vector 393  IntersectionExampleScenario.node[55].veinsmobility  speed  ETV
vector 394  IntersectionExampleScenario.node[55].veinsmobility  acceleration  ETV
vector 395  IntersectionExampleScenario.node[55].veinsmobility  co2emission  ETV
262	1411163 7532 12071 19302 139.25 201.75 251 0.973 11.36141391502 654.31005467634 2931.7252118424
261	1418695 7726 12071 19302 139.25 201.75 251 -4.5 2.5 39.020376205444 528.75611615057
260	1426421 7957 12049 19302 139 201.75 252 0 15.461110115051 2269.9558255821 27443.473200709
259	1434378 8343 12026 19302 138.75 201.75 253 486.85000610352 731.72920227051 131186.99290466 69073137.397689
258	1442721 8320 12026 19302 138.75 201.75 253 486.83142089844 808.82032012939 145391.91894531 85971198.28018
255	1451041 7635 12005 19302 138.5 201.75 254 0.973 9.7809405189239 598.63243207404 2430.5008079641
254	1458676 8210 12005 19302 138.5 201.75 254 -4.5 2.5 33.418523788452 418.01929368077
253	1466886 8365 11984 19302 138.25 201.75 255 0 14.145092010498 2207.9188486934 25417.761430291
252	1475251 8437 11963 19302 138 201.75 256 235.82922363281 486.85000610352 115406.2677002 53232648.578293
251	1483688 8429 11963 19302 138 201.75 256 483.14999389648 785.82187652588 144274.47969055 83503101.550157
297	1492117 5837 13551 19417 154.5 203 195 0.973 11.903574410171 590.96846288108 3184.17183681
296	1497954 6180 13551 19417 154.5 203 195 -4.5 2.5 41.418569564819 464.62859732462
295	1504134 6412 13525 19417 154.25 203 196 2.487642288208 16.004642486572 2187.4018492699 27922.346365045
294	1510546 6485 13498 19417 154 203 197 236.173828125 483.14999389648 86448.483978271 38988360.266698
293	1517031 6471 13498 19417 154 203 197 184.17810058594 483.18347167969 79970.855834961 34282964.921502
304	1523502 5565 14080 19555 159.75 204.5 180 0.973 11.200708441096 541.82040486647 2849.384485443
303	1529067 5414 14080 19555 159.75 204.5 180 -3.5095520019531 2.5 37.492597579956 305.59175875243
302	1534481 5658 14053 19555 159.5 204.5 181 5.6500000953674 15.236875534058 2190.1743378639 28469.630040596
301	1540139 6000 14026 19555 159.25 204.5 182 486.85000610352 734.74688720703 97009.680282593 52704823.914044
300	1546139 5996 14026 19555 159.25 204.5 182 486.85000610352 785.82187652588 103744.33356476 60917598.792784
339	1552135 5196 14644 19716 164.5 206.25 168 0.973 11.200708441096 537.1247217403 3011.3087932965
338	1557331 5362 14644 19716 164.5 206.25 168 -4.056941986084 2.5 36.813589096069 300.36888174408
337	1562693 5545 14609 19716 164.25 206.25 169 5.6500000953674 15.02499961853 2210.95865345 30141.963969152
336	1568238 5600 14574 19716 164 206.25 170 483.14999389648 733.79084777832 90908.802078247 49611133.293945
335	1573838 5580 14574 19716 164 206.25 170 184.17810058594 486.85861206055 68173.227935791 29181552.658595
vector 398  IntersectionExampleScenario.node[56].veinsmobility  posx  ETV
vector 399  IntersectionExampleScenario.node[56].veinsmobility  posy  ETV
vector 400  IntersectionExampleScenario.node[56].veinsmobility  speed  ETV
346	1579644 5059 14928 19764 166.5 206.75 162 0.973 11.990504229548 510.74376695112 2854.3427844188
345	1584703 4944 14928 19764 166.5 206.75 162 -4.5 2.5 39.699392318726 256.71170901074
344	1589647 5136 14891 19764 166.25 206.75 163 5.6500000953674 16.125 2293.8575315475 33209.381769468
343	1594783 5412 14854 19764 166 206.75 164 486.85000610352 486.85000610352 79843.401000977 38871760.264651
342	1600195 5376 14854 19764 166 206.75 164 235.40948486328 803.59610748291 86943.284103394 50601730.392961
vector 401  IntersectionExampleScenario.node[56].veinsmobility  acceleration  ETV
vector 402  IntersectionExampleScenario.node[56].veinsmobility  co2emission  ETV
vector 405  IntersectionExampleScenario.node[57].veinsmobility  posx  ETV
vector 406  IntersectionExampleScenario.node[57].veinsmobility  posy  ETV
vector 407  IntersectionExampleScenario.node[57].veinsmobility  speed  ETV
325	1605962 5419 14574 19841 164 207.5 175 0.973 12.065268386159 538.61798940729 2737.7353902772
324	1611381 5781 14574 19841 164 207.5 175 -4.5 2.5 41.813482284546 284.77868942038
323	1617162 5787 14541 19841 163.75 207.5 176 4.9270195960999 16.228370666504 2206.2963395119 29524.486728772
322	1622949 5833 14510 19841 163.5 207.5 177 486.85000610352 733.96726989746 94652.145507812 51588944.536016
321	1628782 5825 14510 19841 163.5 207.5 177 486.72579956055 790.18281555176 100792.86127472 59251240.728742
vector 408  IntersectionExampleScenario.node[57].veinsmobility  acceleration  ETV
vector 409  IntersectionExampleScenario.node[57].veinsmobility  co2emission  ETV
vector 412  IntersectionExampleScenario.node[58].veinsmobility  posx  ETV
vector 413  IntersectionExampleScenario.node[58].veinsmobility  posy  ETV
vector 414  IntersectionExampleScenario.node[58].veinsmobility  speed  ETV
vector 415  IntersectionExampleScenario.node[58].veinsmobility  acceleration  ETV
vector 416  IntersectionExampleScenario.node[58].veinsmobility  co2emission  ETV
vector 419  IntersectionExampleScenario.node[59].veinsmobility  posx  ETV
vector 420  IntersectionExampleScenario.node[59].veinsmobility  posy  ETV
vector 421  IntersectionExampleScenario.node[59].veinsmobility  speed  ETV
vector 422  IntersectionExampleScenario.node[59].veinsmobility  acceleration  ETV
vector 423  IntersectionExampleScenario.node[59].veinsmobility  co2emission  ETV
vector 426  IntersectionExampleScenario.node[60].veinsmobility  posx  ETV
vector 427  IntersectionExampleScenario.node[60].veinsmobility  posy  ETV
vector 428  IntersectionExampleScenario.node[60].veinsmobility  speed  ETV
vector 433  IntersectionExampleScenario.node[61].veinsmobility  posx  ETV
vector 434  IntersectionExampleScenario.node[61].veinsmobility  posy  ETV
vector 429  IntersectionExampleScenario.node[60].veinsmobility  acceleration  ETV
vector 430  IntersectionExampleScenario.node[60].veinsmobility  co2emission  ETV
vector 435  IntersectionExampleScenario.node[61].veinsmobility  speed  ETV
vector 436  IntersectionExampleScenario.node[61].veinsmobility  acceleration  ETV
vector 437  IntersectionExampleScenario.node[61].veinsmobility  co2emission  ETV
vector 440  IntersectionExampleScenario.node[62].veinsmobility  posx  ETV
vector 441  IntersectionExampleScenario.node[62].veinsmobility  posy  ETV
vector 442  IntersectionExampleScenario.node[62].veinsmobility  speed  ETV
vector 443  IntersectionExampleScenario.node[62].veinsmobility  acceleration  ETV
vector 444  IntersectionExampleScenario.node[62].veinsmobility  co2emission  ETV
vector 447  IntersectionExampleScenario.node[63].veinsmobility  posx  ETV
vector 448  IntersectionExampleScenario.node[63].veinsmobility  posy  ETV
vector 449  IntersectionExampleScenario.node[63].veinsmobility  speed  ETV
vector 450  IntersectionExampleScenario.node[63].veinsmobility  acceleration  ETV
vector 451  IntersectionExampleScenario.node[63].veinsmobility  co2emission  ETV
vector 454  IntersectionExampleScenario.node[64].veinsmobility  posx  ETV
vector 455  IntersectionExampleScenario.node[64].veinsmobility  posy  ETV
vector 456  IntersectionExampleScenario.node[64].veinsmobility  speed  ETV
vector 457  IntersectionExampleScenario.node[64].veinsmobility  acceleration  ETV
vector 458  IntersectionExampleScenario.node[64].veinsmobility  co2emission  ETV
vector 461  IntersectionExampleScenario.node[65].veinsmobility  posx  ETV
vector 462  IntersectionExampleScenario.node[65].veinsmobility  posy  ETV
vector 463  IntersectionExampleScenario.node[65].veinsmobility  speed  ETV
vector 464  IntersectionExampleScenario.node[65].veinsmobility  acceleration  ETV
vector 465  IntersectionExampleScenario.node[65].veinsmobility  co2emission  ETV
vector 468  IntersectionExampleScenario.node[66].veinsmobility  posx  ETV
vector 469  IntersectionExampleScenario.node[66].veinsmobility  posy  ETV
vector 470  IntersectionExampleScenario.node[66].veinsmobility  speed  ETV
vector 471  IntersectionExampleScenario.node[66].veinsmobility  acceleration  ETV
vector 472  IntersectionExampleScenario.node[66].veinsmobility  co2emission  ETV
248	1638291 10027 11906 22215 137.25 228.75 367 0.973 10.756497587458 693.82352505142 2590.2072671768
247	1648318 8748 11906 22215 137.25 228.75 367 -9.1816139221191 4 32.909269332886 463.83541578822
246	1657066 9277 11887 22215 137 228.75 368 0 14.39999961853 2217.1538124084 29061.04104403
245	1666343 12146 11867 22215 136.75 228.75 369 184.17810058594 734.88121032715 170603.64685059 83383839.140171
244	1678489 12178 11867 22215 136.75 228.75 369 486.85000610352 486.85000610352 179647.6522522 87461460.595465
vector 475  IntersectionExampleScenario.node[67].veinsmobility  posx  ETV
vector 476  IntersectionExampleScenario.node[67].veinsmobility  posy  ETV
vector 477  IntersectionExampleScenario.node[67].veinsmobility  speed  ETV
311	1690893 8165 14356 22372 162.25 230 272 0.973 11.648172402475 647.63645270333 3047.3805452658
310	1699058 8915 14356 22372 162.25 230 272 -3.8020079135895 2.5 38.895895004272 347.08808114197
309	1707973 8784 14325 22372 162 230 273 0 15.64999961853 2212.7356558032 29196.340798028
308	1716757 8989 14296 22372 161.75 230 274 184.17810058594 732.583984375 124417.20365906 60711447.59233
307	1725746 9041 14296 22372 161.75 230 274 486.85000610352 486.85000610352 133396.90167236 64944282.39338
vector 478  IntersectionExampleScenario.node[67].veinsmobility  acceleration  ETV
vector 479  IntersectionExampleScenario.node[67].veinsmobility  co2emission  ETV
318	1734952 8498 14387 22635 162.5 232 279 0.973 11.810082123732 677.71498963012 3243.7217698324
317	1743450 8804 14387 22635 162.5 232 279 -4.5 2.5 40.038900375366 488.4540047668
316	1752254 8910 14356 22635 162.25 232 280 0 15.969676971436 2278.2353920825 30117.850982556
315	1761164 9241 14325 22635 162 232 281 159.76721191406 483.15194702148 115882.88909912 50213911.382389
314	1770405 9259 14325 22635 162 232 281 486.84997558594 732.0521697998 144719.85317993 75597957.586462
vector 482  IntersectionExampleScenario.node[68].veinsmobility  posx  ETV
vector 483  IntersectionExampleScenario.node[68].veinsmobility  posy  ETV
353	1779814 7877 15302 22759 169 233 257 0.95430870044464 12.099024792222 645.25326334823 3191.6896263098
352	1787691 8102 15302 22759 169 233 257 -4.4156703948975 2.5 42.245687484741 404.17898189445
351	1795793 8276 15263 22759 168.75 233 258 0 16.27499961853 2217.6353313066 30787.261942748
350	1804069 8488 15224 22759 168.5 233 259 184.17810058594 733.04789733887 115622.35096741 55601855.682933
349	1812557 8546 15224 22759 168.5 233 259 486.85000610352 486.85000610352 126094.15158081 61388938.466735
vector 484  IntersectionExampleScenario.node[68].veinsmobility  speed  ETV
vector 485  IntersectionExampleScenario.node[68].veinsmobility  acceleration  ETV
vector 486  IntersectionExampleScenario.node[68].veinsmobility  co2emission  ETV
vector 489  IntersectionExampleScenario.node[69].veinsmobility  posx  ETV
vector 490  IntersectionExampleScenario.node[69].veinsmobility  posy  ETV
vector 491  IntersectionExampleScenario.node[69].veinsmobility  speed  ETV
vector 492  IntersectionExampleScenario.node[69].veinsmobility  acceleration  ETV
vector 493  IntersectionExampleScenario.node[69].veinsmobility  co2emission  ETV
vector 496  IntersectionExampleScenario.node[70].veinsmobility  posx  ETV
vector 497  IntersectionExampleScenario.node[70].veinsmobility  posy  ETV
vector 498  IntersectionExampleScenario.node[70].veinsmobility  speed  ETV
vector 499  IntersectionExampleScenario.node[70].veinsmobility  acceleration  ETV
vector 500  IntersectionExampleScenario.node[70].veinsmobility  co2emission  ETV
360	1822126 8091 15618 23241 171 236.5 263 0.973 12.099024792222 676.58268288113 3447.0832859203
359	1830217 8073 15618 23241 171 236.5 263 -4.5 2.5 41.057416915894 478.56805429505
358	1838290 8281 15577 23241 170.75 236.5 264 0 16.27499961853 2262.5156079065 30432.815160089
357	1846571 8688 15536 23241 170.5 236.5 265 166.078125 483.14999389648 108445.25515747 46542340.650837
356	1855259 8741 15536 23241 170.5 236.5 265 486.85000610352 734.37701416016 136956.22645569 71847068.90125
381	1864000 6716 17397 23500 182 238.25 226 0.973 12.099024792222 609.41161740038 3250.5494744316
380	1870716 7012 17397 23500 182 238.25 226 -3.7475910186768 2.5 41.566686630249 357.65952340138
379	1877728 7135 17362 23500 181.75 238.25 227 0 16.27499961853 2180.0537245572 28688.101895216
378	1884863 7484 17327 23500 181.5 238.25 228 184.17810058594 483.16339111328 92759.647003174 39511603.614196
377	1892347 7516 17327 23500 181.5 238.25 228 486.84994506836 731.76948547363 118722.35839844 62812520.130106
388	1899863 5535 18566 23574 193.25 238.75 183 0.973 12.099024792222 574.13486497275 3294.56716928
387	1905398 5410 18566 23574 193.25 238.75 183 -4.3200340270996 2.5 41.566686630249 325.58347013943
386	1910808 5810 18545 23574 193 238.75 184 3.8437037467957 16.27499961853 2211.0585341454 29895.458301622
385	1916618 6033 18524 23574 192.75 238.75 185 184.17810058594 731.44049072266 81482.662338257 39899523.561178
384	1922651 6106 18524 23574 192.75 238.75 185 486.85000610352 486.85000610352 90067.25112915 43849241.761954
vector 503  IntersectionExampleScenario.node[71].veinsmobility  posx  ETV
vector 504  IntersectionExampleScenario.node[71].veinsmobility  posy  ETV
vector 505  IntersectionExampleScenario.node[71].veinsmobility  speed  ETV
vector 506  IntersectionExampleScenario.node[71].veinsmobility  acceleration  ETV
vector 507  IntersectionExampleScenario.node[71].veinsmobility  co2emission  ETV
vector 510  IntersectionExampleScenario.node[72].veinsmobility  posx  ETV
vector 511  IntersectionExampleScenario.node[72].veinsmobility  posy  ETV
vector 512  IntersectionExampleScenario.node[72].veinsmobility  speed  ETV
vector 513  IntersectionExampleScenario.node[72].veinsmobility  acceleration  ETV
vector 514  IntersectionExampleScenario.node[72].veinsmobility  co2emission  ETV
416	1929539 5183 19953 24996 208.5 248.75 162 0.973 11.093806525473 448.61774688083 2071.3999795529
415	1934722 4640 19953 24996 208.5 248.75 162 -2.8918914794922 2.5 34.437047958374 158.7507555885
414	1939362 5152 19924 24996 208.25 248.75 163 5.6500000953674 14.875 2215.6442070007 30562.767895231
413	1944514 5376 19895 24996 208 248.75 164 184.17810058594 733.25778198242 73770.987197876 37529530.23311
412	1949890 5412 19895 24996 208 248.75 164 486.85000610352 486.85000610352 79843.401000977 38871760.264651
vector 517  IntersectionExampleScenario.node[73].veinsmobility  posx  ETV
vector 518  IntersectionExampleScenario.node[73].veinsmobility  posy  ETV
vector 519  IntersectionExampleScenario.node[73].veinsmobility  speed  ETV
vector 520  IntersectionExampleScenario.node[73].veinsmobility  acceleration  ETV
vector 521  IntersectionExampleScenario.node[73].veinsmobility  co2emission  ETV
vector 524  IntersectionExampleScenario.node[74].veinsmobility  posx  ETV
vector 525  IntersectionExampleScenario.node[74].veinsmobility  posy  ETV
vector 526  IntersectionExampleScenario.node[74].veinsmobility  speed  ETV
vector 527  IntersectionExampleScenario.node[74].veinsmobility  acceleration  ETV
vector 528  IntersectionExampleScenario.node[74].veinsmobility  co2emission  ETV
332	1956084 9788 14609 25846 164.25 255.5 366 0.973 12.353032912318 764.07475348192 3574.2116542541
331	1965872 8745 14609 25846 164.25 255.5 366 -8.5585737228394 4 41.736440658569 524.48553104858
330	1974617 8925 14574 25846 164 255.5 367 0 16.625 2213.3608915806 32832.910041813
329	1983542 12128 14541 25846 163.75 255.5 368 236.46844482422 785.82187652588 187088.70346832 99158279.805255
328	1995670 12144 14541 25846 163.75 255.5 368 483.14999389648 483.14999389648 177799.19775391 85903681.3096
367	2007814 9923 15786 26209 172 258.25 346 0.973 11.200708441096 688.38798700711 2776.5003138098
366	2017737 9988 15786 26209 172 258.25 346 -3.7472829818726 2.5 35.964826583862 325.56326762153
365	2027725 9987 15743 26209 171.75 258.25 347 0 15.02499961853 2211.629846842 28466.930992173
364	2037712 11470 15700 26209 171.5 258.25 348 483.13439941406 785.82187652588 187231.97060394 102913500.49727
363	2049182 11478 15700 26209 171.5 258.25 348 483.14999389648 734.52995300293 176960.69517517 91241629.868258
374	2060660 10521 15919 26539 172.75 260.75 353 0.973 10.916047529558 707.11459265214 2702.2533788775
373	2071181 11030 15919 26539 172.75 260.75 353 -4.5 2.5 34.77654838562 398.79942366278
372	2082211 10832 15874 26539 172.5 260.75 354 0 14.666051864624 2271.284192319 27910.59440295
371	2093043 11691 15829 26539 172.25 260.75 355 486.85000610352 808.82032012939 195027.15810394 109717420.96946
370	2104734 11714 15829 26539 172.25 260.75 355 237.96301269531 483.14999389648 162934.09954834 75975747.857664
395	2116448 7564 19095 26732 199.5 262.25 252 0.973 12.099024792222 626.74377942663 3038.9061062216
394	2124012 8126 19095 26732 199.5 262.25 252 -3.7256736755371 2.5 40.293508529663 337.86296471493
393	2132138 8022 19072 26732 199.25 262.25 253 0 16.27499961853 2189.7354608886 28807.412452465
392	2140160 8359 19049 26732 199 262.25 254 486.79974365234 785.82187652588 140865.91538239 79999796.380845
391	2148519 8373 19049 26732 199 262.25 254 235.98962402344 483.14999389648 114651.25872803 52814680.946293
402	2156892 6597 19789 26791 207 262.75 224 0.96333723109819 12.099024792222 585.22826897648 3138.3386058815
401	2163489 6977 19789 26791 207 262.75 224 -3.7960147857666 2.5 40.208654403687 329.93933900153
400	2170466 7176 19764 26791 206.75 262.75 225 0 16.27499961853 2213.0497742482 29192.562966015
399	2177642 7435 19739 26791 206.5 262.75 226 237.99682617188 785.82187652588 119271.53525543 67016962.673251
398	2185077 7459 19739 26791 206.5 262.75 226 483.14999389648 483.14999389648 109191.89862061 52756065.152091
vector 531  IntersectionExampleScenario.node[75].veinsmobility  posx  ETV
vector 532  IntersectionExampleScenario.node[75].veinsmobility  posy  ETV
vector 533  IntersectionExampleScenario.node[75].veinsmobility  speed  ETV
vector 534  IntersectionExampleScenario.node[75].veinsmobility  acceleration  ETV
vector 535  IntersectionExampleScenario.node[75].veinsmobility  co2emission  ETV
451	2192927 5328 21522 27102 222.75 265.5 172 0.973 11.648172402475 536.08718473032 2979.0939167753
450	2198255 5194 21522 27102 222.75 265.5 172 -3.7263450622559 2.5 38.341367721558 289.59473294649
449	2203449 5473 21495 27102 222.5 265.5 173 5.6500000953674 15.64999961853 2219.3681893349 29959.290687576
448	2208922 5711 21467 27102 222.25 265.5 174 236.7294921875 785.82187652588 91308.665184021 52084856.065277
447	2214633 5743 21467 27102 222.25 265.5 174 483.14999389648 483.14999389648 84068.098937988 40617501.488778
vector 538  IntersectionExampleScenario.node[76].veinsmobility  posx  ETV
vector 539  IntersectionExampleScenario.node[76].veinsmobility  posy  ETV
vector 540  IntersectionExampleScenario.node[76].veinsmobility  speed  ETV
vector 541  IntersectionExampleScenario.node[76].veinsmobility  acceleration  ETV
vector 542  IntersectionExampleScenario.node[76].veinsmobility  co2emission  ETV
vector 545  IntersectionExampleScenario.node[77].veinsmobility  posx  ETV
vector 546  IntersectionExampleScenario.node[77].veinsmobility  posy  ETV
vector 547  IntersectionExampleScenario.node[77].veinsmobility  speed  ETV
vector 548  IntersectionExampleScenario.node[77].veinsmobility  acceleration  ETV
vector 549  IntersectionExampleScenario.node[77].veinsmobility  co2emission  ETV
vector 552  IntersectionExampleScenario.node[78].veinsmobility  posx  ETV
vector 553  IntersectionExampleScenario.node[78].veinsmobility  posy  ETV
vector 559  IntersectionExampleScenario.node[79].veinsmobility  posx  ETV
vector 560  IntersectionExampleScenario.node[79].veinsmobility  posy  ETV
vector 554  IntersectionExampleScenario.node[78].veinsmobility  speed  ETV
vector 555  IntersectionExampleScenario.node[78].veinsmobility  acceleration  ETV
vector 556  IntersectionExampleScenario.node[78].veinsmobility  co2emission  ETV
vector 561  IntersectionExampleScenario.node[79].veinsmobility  speed  ETV
vector 562  IntersectionExampleScenario.node[79].veinsmobility  acceleration  ETV
vector 563  IntersectionExampleScenario.node[79].veinsmobility  co2emission  ETV
423	2221940 7590 20102 28151 209.75 277.25 271 0.973 12.553400930962 679.42314424916 3612.0468137073
422	2229530 6925 20102 28151 209.75 277.25 271 -8.9821796417236 4 42.924703598022 535.86533100577
421	2236455 7127 20071 28151 209.5 277.25 272 0 16.89999961853 2211.4189648628 33293.556406766
420	2243582 9010 20040 28151 209.25 277.25 273 486.85000610352 486.85000610352 132910.05166626 64707259.464937
419	2252592 8989 20040 28151 209.25 277.25 273 237.029296875 785.82187652588 139772.95262909 75530635.576502
vector 566  IntersectionExampleScenario.node[80].veinsmobility  posx  ETV
vector 567  IntersectionExampleScenario.node[80].veinsmobility  posy  ETV
vector 568  IntersectionExampleScenario.node[80].veinsmobility  speed  ETV
vector 569  IntersectionExampleScenario.node[80].veinsmobility  acceleration  ETV
vector 570  IntersectionExampleScenario.node[80].veinsmobility  co2emission  ETV
409	2261972 8015 19868 28299 207.75 278.75 285 0.973 11.36141391502 634.80576973841 2831.6923028114
408	2269987 7338 19868 28299 207.75 278.75 285 -8.8170804977417 4 36.134572982788 474.74781230033
407	2277325 7514 19841 28299 207.5 278.75 286 0 15.25 2178.3661408424 29708.48817866
406	2284839 9408 19814 28299 207.25 278.75 287 236.32275390625 483.14999389648 130159.9289856 60175168.051774
405	2294247 9448 19814 28299 207.25 278.75 287 184.17810058594 483.36395263672 123079.3890686 54936687.896653
vector 573  IntersectionExampleScenario.node[81].veinsmobility  posx  ETV
vector 574  IntersectionExampleScenario.node[81].veinsmobility  posy  ETV
vector 580  IntersectionExampleScenario.node[82].veinsmobility  posx  ETV
vector 581  IntersectionExampleScenario.node[82].veinsmobility  posy  ETV
vector 575  IntersectionExampleScenario.node[81].veinsmobility  speed  ETV
vector 582  IntersectionExampleScenario.node[82].veinsmobility  speed  ETV
vector 576  IntersectionExampleScenario.node[81].veinsmobility  acceleration  ETV
vector 577  IntersectionExampleScenario.node[81].veinsmobility  co2emission  ETV
vector 583  IntersectionExampleScenario.node[82].veinsmobility  acceleration  ETV
vector 584  IntersectionExampleScenario.node[82].veinsmobility  co2emission  ETV
444	2304477 7119 21332 28407 221 279.75 236 0.973 11.648172402475 593.08216049145 2903.3204691763
443	2311596 7344 21332 28407 221 279.75 236 -3.7897484302521 2.5000001043081 38.171613693237 340.76531029083
442	2318940 7527 21305 28407 220.75 279.75 237 0 15.64999961853 2181.5578870997 28706.312725778
441	2326467 7851 21278 28407 220.5 279.75 238 486.85000610352 732.40063476562 124027.83413696 65685946.120353
440	2334318 7832 21278 28407 220.5 279.75 238 486.85000610352 785.82187652588 131749.26921844 74872786.672385
vector 587  IntersectionExampleScenario.node[83].veinsmobility  posx  ETV
vector 588  IntersectionExampleScenario.node[83].veinsmobility  posy  ETV
vector 589  IntersectionExampleScenario.node[83].veinsmobility  speed  ETV
vector 590  IntersectionExampleScenario.node[83].veinsmobility  acceleration  ETV
vector 591  IntersectionExampleScenario.node[83].veinsmobility  co2emission  ETV
437	2342541 7518 21171 28587 219.5 281.25 248 0.973 11.200708441096 602.8959375318 2609.0603469238
436	2350059 7922 21171 28587 219.5 281.25 248 -3.9581201076508 2.5 37.492597579956 317.32898380386
435	2357981 8056 21144 28587 219.25 281.25 249 0 15.060669898987 2206.7978862785 28458.936873811
434	2366037 8238 21117 28587 219 281.25 250 483.14999389648 733.00032043457 129379.8603363 68080632.995196
433	2374275 8210 21117 28587 219 281.25 250 184.17810058594 486.90454101562 104960.87884521 46090346.034996
479	2382485 6205 22405 28680 230.25 282 208 0.973 11.200708441096 551.64447871134 2662.8079449706
478	2388690 6377 22405 28680 230.25 282 208 -2.0628356933594 2.5000009536743 37.32285118103 291.83990246943
477	2395067 6632 22372 28680 230 282 209 1.021756529808 15.037120819092 2202.5821853876 28327.002906115
476	2401699 6909 22339 28680 229.75 282 210 237.94085693359 486.85000610352 93767.399414062 42931584.96711
475	2408608 6916 22339 28680 229.75 282 210 483.1279296875 785.82187652588 117950.205513 68133093.69485
vector 594  IntersectionExampleScenario.node[84].veinsmobility  posx  ETV
vector 595  IntersectionExampleScenario.node[84].veinsmobility  posy  ETV
vector 601  IntersectionExampleScenario.node[85].veinsmobility  posx  ETV
vector 602  IntersectionExampleScenario.node[85].veinsmobility  posy  ETV
vector 596  IntersectionExampleScenario.node[84].veinsmobility  speed  ETV
vector 597  IntersectionExampleScenario.node[84].veinsmobility  acceleration  ETV
vector 598  IntersectionExampleScenario.node[84].veinsmobility  co2emission  ETV
vector 603  IntersectionExampleScenario.node[85].veinsmobility  speed  ETV
vector 604  IntersectionExampleScenario.node[85].veinsmobility  acceleration  ETV
vector 605  IntersectionExampleScenario.node[85].veinsmobility  co2emission  ETV
486	2416306 6343 22825 29008 233.5 284.5 205 0.973 11.36141391502 588.1203427688 2933.7095236738
485	2422649 6179 22825 29008 233.5 284.5 205 -4.5 2.5 39.699392318726 465.45022059563
484	2428828 6477 22792 29008 233.25 284.5 206 0.31801176071167 15.605993270874 2236.3457682133 29947.046138884
483	2435305 6811 22759 29008 233 284.5 207 486.85000610352 734.60624694824 108902.21585083 58309630.881727
482	2442116 6811 22759 29008 233 284.5 207 486.77087402344 797.07032012939 117281.59828186 68444413.251139
465	2448927 7028 21907 29043 226.25 284.75 235 0.973 11.36141391502 622.27875162699 3022.7503117308
464	2455955 7071 21907 29043 226.25 284.75 235 -31.663900375366 4 38.171613693237 1430.1372138919
463	2463026 7516 21878 29043 226 284.75 236 0 15.25 2172.745948758 27613.253960775
462	2470542 7812 21849 29043 225.75 284.75 237 237.35314941406 483.14999389648 106329.35079956 48757712.782547
461	2478354 7791 21849 29043 225.75 284.75 237 184.17810058594 483.21905517578 97848.381713867 42307354.552099
493	2486145 6073 23027 29183 235 285.75 204 0.973 11.200708441096 540.25489538413 2663.6683578219
492	2492218 6266 23027 29183 235 285.75 204 -4.5 2.5000019073486 35.795072555542 348.52176882017
491	2498484 6612 22992 29183 234.75 285.75 205 1.1071901321411 15.02499961853 2211.0537564754 28128.366763362
490	2505096 6799 22957 29183 234.5 285.75 206 483.14999389648 483.14999389648 99528.898742676 48087386.820047
489	2511895 6764 22957 29183 234.5 285.75 206 184.17810058594 732.25749206543 92109.747909546 45456869.743402
514	2518659 5942 23884 29579 240.75 288.75 193 0.973 10.756497587458 527.60625383081 2538.406389522
513	2524601 6032 23884 29579 240.75 288.75 193 -4.3024673461914 2.5000009536743 32.569761276245 347.4692919467
512	2530633 6367 23845 29579 240.5 288.75 194 2.2680985927582 14.39999961853 2206.3553464413 27224.734553113
511	2537000 6430 23805 29579 240.25 288.75 195 236.96826171875 486.85000610352 85702.526855469 38769543.555415
510	2543430 6422 23805 29579 240.25 288.75 195 483.14999389648 785.82187652588 110518.22846222 64543138.030824
521	2549852 4878 25181 29641 250.25 289.25 157 0.973 11.775971747693 506.90456814369 2990.5357981865
520	2554730 4617 25181 29641 250.25 289.25 157 -3.3846092224121 2.5 38.850629806519 261.59098434361
519	2559347 4928 25150 29641 250 289.25 158 5.6500000953674 15.827649116516 2210.698176384 31874.505019621
518	2564275 5240 25119 29641 249.75 289.25 159 483.14999389648 733.76260375977 85206.103652954 46618002.150158
517	2569515 5223 25119 29641 249.75 289.25 159 184.17810058594 486.85000610352 63298.008056641 26968999.861006
vector 608  IntersectionExampleScenario.node[86].veinsmobility  posx  ETV
vector 609  IntersectionExampleScenario.node[86].veinsmobility  posy  ETV
vector 615  IntersectionExampleScenario.node[87].veinsmobility  posx  ETV
vector 616  IntersectionExampleScenario.node[87].veinsmobility  posy  ETV
vector 610  IntersectionExampleScenario.node[86].veinsmobility  speed  ETV
vector 611  IntersectionExampleScenario.node[86].veinsmobility  acceleration  ETV
vector 612  IntersectionExampleScenario.node[86].veinsmobility  co2emission  ETV
vector 617  IntersectionExampleScenario.node[87].veinsmobility  speed  ETV
vector 618  IntersectionExampleScenario.node[87].veinsmobility  acceleration  ETV
vector 619  IntersectionExampleScenario.node[87].veinsmobility  co2emission  ETV
vector 622  IntersectionExampleScenario.node[88].veinsmobility  posx  ETV
vector 623  IntersectionExampleScenario.node[88].veinsmobility  posy  ETV
vector 624  IntersectionExampleScenario.node[88].veinsmobility  speed  ETV
vector 625  IntersectionExampleScenario.node[88].veinsmobility  acceleration  ETV
vector 626  IntersectionExampleScenario.node[88].veinsmobility  co2emission  ETV
vector 629  IntersectionExampleScenario.node[89].veinsmobility  posx  ETV
vector 630  IntersectionExampleScenario.node[89].veinsmobility  posy  ETV
vector 631  IntersectionExampleScenario.node[89].veinsmobility  speed  ETV
vector 632  IntersectionExampleScenario.node[89].veinsmobility  acceleration  ETV
vector 633  IntersectionExampleScenario.node[89].veinsmobility  co2emission  ETV
535	2576302 4897 26879 31214 263.5 301.5 153 0.973 12.099024792222 503.8825726296 2905.9395801761
534	2581199 4636 26879 31214 263.5 301.5 153 -3.50390625 2.5 40.378400802612 257.23133760097
533	2585835 4786 26850 31214 263.25 301.5 154 5.6500000953674 16.27499961853 2201.2420482635 32538.13570716
532	2590621 5108 26820 31214 263 301.5 155 483.14999389648 731.41204833984 82928.775390625 45280263.42064
531	2595729 5088 26820 31214 263 301.5 155 184.17810058594 486.85000610352 61637.167266846 26252816.636715
vector 636  IntersectionExampleScenario.node[90].veinsmobility  posx  ETV
vector 637  IntersectionExampleScenario.node[90].veinsmobility  posy  ETV
vector 638  IntersectionExampleScenario.node[90].veinsmobility  speed  ETV
vector 639  IntersectionExampleScenario.node[90].veinsmobility  acceleration  ETV
vector 640  IntersectionExampleScenario.node[90].veinsmobility  co2emission  ETV
vector 643  IntersectionExampleScenario.node[91].veinsmobility  posx  ETV
vector 644  IntersectionExampleScenario.node[91].veinsmobility  posy  ETV
vector 645  IntersectionExampleScenario.node[91].veinsmobility  speed  ETV
542	2601434 4953 27182 31586 266.25 304.25 153 0.97223939240464 11.648172402475 471.80125096764 2469.8143218926
541	2606387 4475 27182 31586 266.25 304.25 153 -3.5467910766602 2.5 38.680875778198 197.15975724438
540	2610862 4854 27155 31586 266 304.25 154 5.6500000953674 15.64999961853 2210.3583621979 32381.155842395
539	2615716 5115 27128 31586 265.75 304.25 155 486.85000610352 486.85000610352 75461.750946045 36738553.908664
538	2620831 5097 27128 31586 265.75 304.25 155 238.41052246094 785.82187652588 80957.144294739 46372668.315127
vector 646  IntersectionExampleScenario.node[91].veinsmobility  acceleration  ETV
vector 647  IntersectionExampleScenario.node[91].veinsmobility  co2emission  ETV
vector 650  IntersectionExampleScenario.node[92].veinsmobility  posx  ETV
vector 651  IntersectionExampleScenario.node[92].veinsmobility  posy  ETV
vector 652  IntersectionExampleScenario.node[92].veinsmobility  speed  ETV
vector 653  IntersectionExampleScenario.node[92].veinsmobility  acceleration  ETV
vector 654  IntersectionExampleScenario.node[92].veinsmobility  co2emission  ETV
430	2626484 10150 21117 32788 219 313.25 378 0.973 11.648172402475 742.45696353784 3083.6388440903
429	2636634 8851 21117 32788 219 313.25 378 -7.092942237854 4 38.341367721558 476.74128165784
428	2645485 9233 21092 32788 218.75 313.25 379 0 15.64999961853 2177.7517211437 30631.668078274
427	2654718 12514 21067 32788 218.5 313.25 380 184.17810058594 483.36395263672 167222.93554688 75838157.231208
426	2667232 12471 21067 32788 218.5 313.25 380 486.85000610352 733.04777526855 193184.75013733 99373671.313218
vector 657  IntersectionExampleScenario.node[93].veinsmobility  posx  ETV
vector 658  IntersectionExampleScenario.node[93].veinsmobility  posy  ETV
vector 659  IntersectionExampleScenario.node[93].veinsmobility  speed  ETV
vector 660  IntersectionExampleScenario.node[93].veinsmobility  acceleration  ETV
vector 661  IntersectionExampleScenario.node[93].veinsmobility  co2emission  ETV
458	2680094 10473 21633 33130 223.75 315.75 369 0.973 10.756497587458 690.80301171624 2555.2369501174
457	2690567 10392 21633 33130 223.75 315.75 369 -3.7731471061707 2.5 33.248777389526 313.89020435149
456	2700959 10439 21605 33130 223.5 315.75 370 0 14.39999961853 2222.3428700082 28109.175020424
455	2711398 12194 21576 33130 223.25 315.75 371 184.17810058594 735.46034240723 169887.73982239 82280217.664298
454	2723592 12245 21576 33130 223.25 315.75 371 486.85000610352 486.85000610352 180621.3522644 87935506.452351
472	2735837 10487 21998 33305 227 317 361 0.973 12.056647051225 772.81696229326 3251.5203204032
471	2746324 10978 21998 33305 227 317 361 -4.5 2.5000019073486 42.265829086304 412.1961021112
470	2757302 10868 21967 33305 226.75 317 362 0 16.216457366943 2268.451727055 29439.132813595
469	2768170 11928 21936 33305 226.5 317 363 172.9296875 735.05294799805 163356.00891113 78077876.163898
468	2780098 11978 21936 33305 226.5 317 363 486.85000610352 486.85000610352 176726.55221558 86039323.024807
vector 664  IntersectionExampleScenario.node[94].veinsmobility  posx  ETV
vector 665  IntersectionExampleScenario.node[94].veinsmobility  posy  ETV
500	2792226 9615 23241 33550 236.5 318.75 330 0.973 12.099024792222 700.16425792704 3317.4961585291
499	2801841 10129 23241 33550 236.5 318.75 330 -3.7581205368042 2.5 40.038900375366 352.59993236148
498	2811970 10219 23204 33550 236.25 318.75 331 0 16.27499961853 2213.364855919 28598.208396144
497	2822189 10883 23167 33550 236 318.75 332 184.17810058594 486.85000610352 140386.31259155 61355367.807167
496	2833072 10952 23167 33550 236 318.75 332 235.65686035156 486.85000610352 153365.73239136 72023358.617901
vector 666  IntersectionExampleScenario.node[94].veinsmobility  speed  ETV
vector 667  IntersectionExampleScenario.node[94].veinsmobility  acceleration  ETV
vector 668  IntersectionExampleScenario.node[94].veinsmobility  co2emission  ETV
556	2844265 5775 28036 34068 276 322.25 186 0.973 10.756497587458 528.02539376664 2567.3465439432
555	2850040 5606 28036 34068 276 322.25 186 -4.5 2.5000019073486 33.927785873413 319.00213390226
554	2855646 5955 28013 34068 275.75 322.25 187 5.049144744873 14.39999961853 2214.1362848282 28049.030377581
553	2861601 6165 27992 34068 275.5 322.25 188 184.17810058594 733.10882568359 84113.662445068 42024989.066372
552	2867766 6204 27992 34068 275.5 322.25 188 486.85000610352 486.85000610352 91527.801147461 44560310.547283
598	2873970 4887 28903 34290 283.75 323.75 161 0.93438186594183 12.26218747632 561.89989274422 3674.3149886967
597	2878857 4938 28903 34290 283.75 323.75 161 -3.751672744751 2.5000038146973 41.057416915894 354.02224665305
596	2883795 4994 28868 34290 283.5 323.75 162 5.6500000953674 16.5 2178.4715237617 30907.456981441
595	2888789 5353 28835 34290 283.25 323.75 163 184.17810058594 483.14999389648 64820.116210938 27495041.90353
594	2894142 5372 28835 34290 283.25 323.75 163 486.85000610352 731.6177520752 87118.89630127 47453469.35556
vector 671  IntersectionExampleScenario.node[95].veinsmobility  posx  ETV
vector 672  IntersectionExampleScenario.node[95].veinsmobility  posy  ETV
vector 673  IntersectionExampleScenario.node[95].veinsmobility  speed  ETV
vector 674  IntersectionExampleScenario.node[95].veinsmobility  acceleration  ETV
vector 675  IntersectionExampleScenario.node[95].veinsmobility  co2emission  ETV
vector 678  IntersectionExampleScenario.node[96].veinsmobility  posx  ETV
vector 679  IntersectionExampleScenario.node[96].veinsmobility  posy  ETV
vector 680  IntersectionExampleScenario.node[96].veinsmobility  speed  ETV
vector 681  IntersectionExampleScenario.node[96].veinsmobility  acceleration  ETV
vector 682  IntersectionExampleScenario.node[96].veinsmobility  co2emission  ETV
vector 685  IntersectionExampleScenario.node[97].veinsmobility  posx  ETV
vector 686  IntersectionExampleScenario.node[97].veinsmobility  posy  ETV
vector 687  IntersectionExampleScenario.node[97].veinsmobility  speed  ETV
vector 688  IntersectionExampleScenario.node[97].veinsmobility  acceleration  ETV
vector 689  IntersectionExampleScenario.node[97].veinsmobility  co2emission  ETV
vector 692  IntersectionExampleScenario.node[98].veinsmobility  posx  ETV
vector 693  IntersectionExampleScenario.node[98].veinsmobility  posy  ETV
vector 694  IntersectionExampleScenario.node[98].veinsmobility  speed  ETV
vector 695  IntersectionExampleScenario.node[98].veinsmobility  acceleration  ETV
vector 696  IntersectionExampleScenario.node[98].veinsmobility  co2emission  ETV
vector 699  IntersectionExampleScenario.node[99].veinsmobility  posx  ETV
vector 700  IntersectionExampleScenario.node[99].veinsmobility  posy  ETV
vector 701  IntersectionExampleScenario.node[99].veinsmobility  speed  ETV
vector 702  IntersectionExampleScenario.node[99].veinsmobility  acceleration  ETV
[...]
3786	22707918 13935 205859 219337 1678.25 1775.25 389 486.85000610352 732.53002929688 197553.43885803 101489469.08852
vector 4052  IntersectionExampleScenario.node[578].veinsmobility  posx  ETV
vector 4053  IntersectionExampleScenario.node[578].veinsmobility  posy  ETV
vector 4054  IntersectionExampleScenario.node[578].veinsmobility  speed  ETV
vector 4055  IntersectionExampleScenario.node[578].veinsmobility  acceleration  ETV
vector 4056  IntersectionExampleScenario.node[578].veinsmobility  co2emission  ETV
3804	22722254 10959 207323 219689 1692.5 1778 343 0.973 10.756497587458 664.56692497385 2527.9742489912
3803	22733213 11113 207323 219689 1692.5 1778 343 -3.8153469562531 2.5 32.909269332886 309.27702144098
3802	22744326 11086 207300 219689 1692.25 1778 344 0 14.39999961853 2208.3073809817 27294.122446232
3801	22755412 12380 207277 219689 1692 1778 345 184.17810058594 486.86563110352 148617.7428894 66243452.447915
3800	22767792 12404 207277 219689 1692 1778 345 235.96850585938 486.85000610352 158713.64590454 74316115.182236
vector 4059  IntersectionExampleScenario.node[579].veinsmobility  posx  ETV
vector 4060  IntersectionExampleScenario.node[579].veinsmobility  posy  ETV
vector 4061  IntersectionExampleScenario.node[579].veinsmobility  speed  ETV
vector 4062  IntersectionExampleScenario.node[579].veinsmobility  acceleration  ETV
vector 4063  IntersectionExampleScenario.node[579].veinsmobility  co2emission  ETV
3811	22780597 10792 207697 219789 1696.75 1778.75 329 0.973 11.54047740176 706.6118908523 2934.4748627628
3810	22791389 11099 207697 219789 1696.75 1778.75 329 -4.5 2.5 39.190130233765 397.70654182848
3809	22802488 11208 207674 219789 1696.5 1778.75 330 0 15.50709438324 2228.1458535846 29414.770849405
3808	22813696 11878 207651 219789 1696.25 1778.75 331 179.77032470703 731.99082946777 148561.02284241 70906986.08531
3807	22825574 11918 207651 219789 1696.25 1778.75 331 486.85000610352 486.85000610352 161147.35202026 78454589.314631
3825	22837492 10586 208251 220207 1702.25 1782 320 0.97223939240464 11.648172402475 687.59352954604 3087.1631965574
3824	22848078 11030 208251 220207 1702.25 1782 320 -3.9230222702026 2.5000009536743 38.680875778198 376.34053939435
3823	22859108 11197 208224 220207 1702 1782 321 0 15.64999961853 2187.8125888752 27744.229415156
3822	22870305 11553 208197 220207 1701.75 1782 322 184.17810058594 483.14999389648 135418.60824585 58902267.291751
3821	22881858 11579 208197 220207 1701.75 1782 322 486.85000610352 734.0164642334 164965.30566406 85652170.358389
3832	22893437 10486 208620 220481 1706 1784.25 314 0.973 11.200708441096 675.49095979178 2900.0160042514
3831	22903923 10868 208620 220481 1706 1784.25 314 -4.5 2.5 37.15309715271 383.15663203145
3830	22914791 11026 208595 220481 1705.75 1784.25 315 0 15.02499961853 2238.5085209524 28200.715522525
3829	22925817 11329 208570 220481 1705.5 1784.25 316 176.21716308594 486.85000610352 131490.06552124 56822763.835704
3828	22937146 11350 208570 220481 1705.5 1784.25 316 237.60491943359 486.85003662109 145324.74047852 68018229.476599
3867	22948496 10222 209132 220626 1710.75 1785.5 300 0.973 11.450879080643 697.9468436052 3091.1737806908
3866	22958718 10665 209132 220626 1710.75 1785.5 300 -3.9850344657898 2.5 41.582059860229 408.319548888
3865	22969383 10514 209102 220626 1710.5 1785.5 301 0 16.167100906372 2228.2021398172 29676.422338823
3864	22979897 10839 209071 220626 1710.25 1785.5 302 179.587890625 486.86584472656 125024.89450073 53714661.144768
3863	22990736 10867 209071 220626 1710.25 1785.5 302 237.09527587891 486.85000610352 138989.41781616 65087252.899612
3895	23001603 9387 209746 220945 1715.75 1788.25 291 0.973 11.200708441096 659.0783812292 2976.9442047287
3894	23010990 9133 209746 220945 1715.75 1788.25 291 -4.5 2.5 35.795072555542 506.06709708984
3893	23020123 9329 209709 220945 1715.5 1788.25 292 0 15.02499961853 2218.2649410665 28736.748136865
3892	23029452 10501 209672 220945 1715.25 1788.25 293 184.17810058594 733.30891418457 128986.47085571 61097884.825418
3891	23039953 10542 209672 220945 1715.25 1788.25 293 486.84985351562 486.85000610352 142647.04379272 69447710.248477
vector 4066  IntersectionExampleScenario.node[580].veinsmobility  posx  ETV
vector 4067  IntersectionExampleScenario.node[580].veinsmobility  posy  ETV
vector 4068  IntersectionExampleScenario.node[580].veinsmobility  speed  ETV
vector 4069  IntersectionExampleScenario.node[580].veinsmobility  acceleration  ETV
vector 4070  IntersectionExampleScenario.node[580].veinsmobility  co2emission  ETV
3951	23050896 8043 212085 221277 1729 1791.25 250 0.973 11.36141391502 630.61994186673 3145.9286059564
3950	23058939 8281 212085 221277 1729 1791.25 250 -4.1451530456543 2.5 36.134572982788 424.77021464587
3949	23067220 8316 212040 221277 1728.75 1791.25 251 0 15.25 2184.8068159521 27008.667474121
3948	23075536 9045 211995 221277 1728.5 1791.25 252 184.17810058594 483.19808959961 101992.43344116 43098664.213099
3947	23084581 9062 211995 221277 1728.5 1791.25 252 486.84997558594 733.90594482422 131207.11325073 69427657.828119
vector 4073  IntersectionExampleScenario.node[581].veinsmobility  posx  ETV
vector 4074  IntersectionExampleScenario.node[581].veinsmobility  posy  ETV
vector 4080  IntersectionExampleScenario.node[582].veinsmobility  posx  ETV
vector 4081  IntersectionExampleScenario.node[582].veinsmobility  posy  ETV
vector 4075  IntersectionExampleScenario.node[581].veinsmobility  speed  ETV
3958	23094029 8068 212359 221333 1730.5 1791.75 246 0.973 11.200708441096 634.94585733342 3039.7062857073
3957	23102097 7885 212359 221333 1730.5 1791.75 246 -6.2206206321716 2.5 38.341367721558 459.47986280394
3956	23109982 8249 212312 221333 1730.25 1791.75 247 -0.27570104598999 15.302890777588 2292.6429752447 30076.240684858
3955	23118231 8875 212265 221333 1730 1791.75 248 163.88433837891 731.90586853027 106634.43025208 50474007.673596
3954	23127106 8928 212265 221333 1730 1791.75 248 486.85000610352 486.85000610352 120738.80151367 58781686.253862
vector 4076  IntersectionExampleScenario.node[581].veinsmobility  acceleration  ETV
vector 4077  IntersectionExampleScenario.node[581].veinsmobility  co2emission  ETV
vector 4082  IntersectionExampleScenario.node[582].veinsmobility  speed  ETV
vector 4083  IntersectionExampleScenario.node[582].veinsmobility  acceleration  ETV
vector 4084  IntersectionExampleScenario.node[582].veinsmobility  co2emission  ETV
3993	23136450 6923 214318 221690 1741.5 1794.75 214 0.973 11.450879080643 584.09564489845 3068.3930255158
3992	23143373 7337 214318 221690 1741.5 1794.75 214 -2.9787445068359 2.5 37.15309715271 340.79599993446
3991	23150710 7455 214273 221690 1741.25 1794.75 215 1.1636526584625 15.375 2204.0037071705 27614.150535649
3990	23158165 7744 214228 221690 1741 1794.75 216 184.17810058594 486.85000610352 86324.933654785 36321099.411814
3989	23165909 7764 214228 221690 1741 1794.75 216 237.55877685547 486.85000610352 96644.031066895 44320471.149636
vector 4087  IntersectionExampleScenario.node[583].veinsmobility  posx  ETV
vector 4088  IntersectionExampleScenario.node[583].veinsmobility  posy  ETV
vector 4089  IntersectionExampleScenario.node[583].veinsmobility  speed  ETV
vector 4090  IntersectionExampleScenario.node[583].veinsmobility  acceleration  ETV
vector 4091  IntersectionExampleScenario.node[583].veinsmobility  co2emission  ETV
4007	23174074 5845 216183 221938 1753.75 1797 174 0.973 11.648172402475 582.65177050438 3409.8619231401
4006	23179919 5738 216183 221938 1753.75 1797 174 -3.3655414581299 2.5 39.869146347046 367.32233732394
4005	23185657 5970 216146 221938 1753.5 1797 175 5.6500000953674 15.680425643921 2188.2569890022 29021.924947254
4004	23191627 6313 216109 221938 1753.25 1797 176 184.17810058594 483.19012451172 69702.75982666 29358693.431285
4003	23197940 6282 216109 221938 1753.25 1797 176 486.85000610352 734.54170227051 93781.115203857 50929233.438824
vector 4094  IntersectionExampleScenario.node[584].veinsmobility  posx  ETV
vector 4095  IntersectionExampleScenario.node[584].veinsmobility  posy  ETV
vector 4101  IntersectionExampleScenario.node[585].veinsmobility  posx  ETV
vector 4102  IntersectionExampleScenario.node[585].veinsmobility  posy  ETV
vector 4096  IntersectionExampleScenario.node[584].veinsmobility  speed  ETV
vector 4103  IntersectionExampleScenario.node[585].veinsmobility  speed  ETV
vector 4097  IntersectionExampleScenario.node[584].veinsmobility  acceleration  ETV
vector 4098  IntersectionExampleScenario.node[584].veinsmobility  co2emission  ETV
vector 4104  IntersectionExampleScenario.node[585].veinsmobility  acceleration  ETV
vector 4105  IntersectionExampleScenario.node[585].veinsmobility  co2emission  ETV
3888	23205024 10074 209746 222284 1715.75 1800 338 0.973 11.648172402475 686.5760853488 3026.8560709221
3887	23215098 9199 209746 222284 1715.75 1800 338 -7.7750473022461 4 38.511121749878 480.0267975717
3886	23224297 9310 209709 222284 1715.5 1800 339 0 15.64999961853 1954.5295500755 27491.974894936
3885	23233607 12226 209672 222284 1715.25 1800 340 300.95385742188 785.82187652588 176974.62741852 95260318.913248
3884	23245833 12240 209672 222284 1715.25 1800 340 483.14999389648 483.14999389648 164270.9979248 79367531.644739
3923	23258073 10139 210337 222284 1719.5 1800 323 0.973 10.756497587458 614.41583375143 2408.4016287115
3922	23268212 10478 210337 222284 1719.5 1800 323 -3.8717653751373 2.5 32.909460067749 315.99472654325
3921	23278690 10269 210292 222284 1719.25 1800 324 0 14.39999961853 1796.1589166988 22229.264776828
3920	23288959 11663 210247 222284 1719 1800 325 348.91711425781 793.78281402588 174412.76308441 96445633.828864
3919	23300622 11698 210247 222284 1719 1800 325 483.14999389648 483.14999389648 157023.74801636 75866022.895706
3965	23312320 8769 212676 222284 1732.25 1800 272 0.973 11.00486315618 563.78805186843 2449.5176471912
3964	23321089 9248 212676 222284 1732.25 1800 272 -3.8001997470856 2.5 34.783407211304 306.35612776195
3963	23330337 9149 212631 222284 1732 1800 273 0 14.75 1641.5207188809 19612.237384006
3962	23339486 9839 212585 222284 1731.75 1800 274 483.14999389648 785.82187652588 151843.74488831 86070425.937376
3961	23349325 9861 212585 222284 1731.75 1800 274 483.14999389648 591.63790893555 134139.54873657 65783676.199518
3972	23359186 8430 213421 222284 1736.5 1800 255 0.973 10.929922437115 576.62038154028 2575.8881920333
3971	23367616 9008 213421 222284 1736.5 1800 255 -4.3331146240234 2.5 39.059030532837 361.66438756842
3970	23376624 8914 213376 222284 1736.25 1800 256 0 15.723866462708 1546.4613172207 18523.715181585
3969	23385538 9215 213330 222284 1736 1800 257 483.11956787109 790.22275543213 144607.5606308 83178016.418899
3968	23394753 9245 213330 222284 1736 1800 257 483.14999389648 563.54190063477 125141.97940063 60982696.955414
3979	23403998 7352 213421 222284 1736.5 1800 255 0.973 11.200708441096 422.50198601013 1485.7216271142
3978	23411350 6512 213421 222284 1736.5 1800 255 -10.451008796692 2.5 -22.60000038147 393.7278142669
3977	23417862 6838 213376 222284 1736.25 1800 256 0 15.02499961853 1145.5852253437 15960.374116248
3976	23424700 9250 213330 222284 1736 1800 257 483.14999389648 483.14999389648 124169.5484314 59992516.566758
3975	23433950 9231 213330 222284 1736 1800 257 184.17810058594 471.60000610352 108219.47155762 47562423.115049
3986	23443181 7124 213784 222284 1738.5 1800 247 0.973 11.200708441096 412.38685011739 1470.8943073917
3985	23450305 6398 213784 222284 1738.5 1800 247 -8.4870567321777 2.5 -22.60000038147 321.63853871578
3984	23456703 6687 213738 222284 1738.25 1800 248 0 15.02499961853 1146.2679541111 15799.94772419
3983	23463390 8962 213691 222284 1738 1800 249 486.85000610352 486.85000610352 121225.65151978 59018709.182305
3982	23472352 8951 213691 222284 1738 1800 249 498.39999389648 785.82187652588 137107.97228241 77465812.607359
4000	23481303 6862 214851 222284 1744.75 1800 222 0.973 11.200708441096 383.96755768208 1436.5663788616
3999	23488165 7307 214851 222284 1744.75 1800 222 -3.6683378219604 2.5 -22.60000038147 196.70367558269
3998	23495472 7250 214811 222284 1744.5 1800 223 0 15.244711875916 1123.0470461417 14526.112078436
3997	23502722 8064 214770 222284 1744.25 1800 224 486.85000610352 486.85000610352 109054.40136719 53093135.97123
3996	23510786 8047 214770 222284 1744.25 1800 224 504.79763793945 785.82187652588 125799.95249176 72401539.308033
4014	23518833 5490 216742 222284 1757.5 1800 171 0.97223939240464 11.648172402475 335.04411224009 1482.3367580894
4013	23524323 6253 216742 222284 1757.5 1800 171 -3.8634688854218 2.5 -22.488097757101 195.09410303939
4012	23530576 6147 216703 222284 1757.25 1800 172 0 15.64999961853 1123.0610804884 14079.638493102
4011	23536723 6226 216664 222284 1757 1800 173 483.14999389648 483.14999389648 83584.948944092 40384067.572176
4010	23542949 6200 216664 222284 1757 1800 173 184.17810058594 465.14019775391 67555.730377197 27890736.020922
4021	23549149 5321 216940 222284 1758.75 1800 166 0.973 11.200708441096 321.11787105279 1347.291584319
4020	23554470 6086 216940 222284 1758.75 1800 166 -3.7574517726898 2.5 -22.352418914437 182.7373808578
4019	23560556 5970 216900 222284 1758.5 1800 167 0 15.02499961853 1097.1599817164 13413.288595462
4018	23566526 6048 216859 222284 1758.25 1800 168 486.85000610352 486.85000610352 81790.801025391 39819851.978423
4017	23572574 6037 216859 222284 1758.25 1800 168 511.32427978516 785.82187652588 98488.082130432 59147045.896945
4028	23578611 5621 217061 222284 1759.5 1800 163 0.973 11.36141391502 483.27758435235 2531.8538032404
4027	23584232 5491 217061 222284 1759.5 1800 163 -4.5 2.5 37.32285118103 255.66837695465
4026	23589723 5579 217020 222284 1759.25 1800 164 5.6500000953674 15.25 2160.0861163139 29701.801774621
4025	23595302 5911 216979 222284 1759 1800 165 184.17810058594 483.14999389648 65535.805114746 27787455.807117
4024	23601213 5931 216979 222284 1759 1800 165 486.85000610352 727.11009216309 88255.38394165 48090613.644664
4035	23607144 3923 218403 222284 1768.5 1800 127 0.973 11.648172402475 281.66591496406 1412.5616008698
4034	23611067 4547 218403 222284 1768.5 1800 127 -3.7860834598541 2.5 -21.248378872871 185.577481486
4033	23615614 4584 218368 222284 1768.25 1800 128 0 15.64999961853 1092.8437747136 13452.847169065
4032	23620198 4642 218333 222284 1768 1800 129 483.14999389648 483.14999389648 62326.349212646 30112975.24168
4031	23624840 4617 218333 222284 1768 1800 129 184.17810058594 457.4853515625 46660.444824219 17993847.620233
4042	23629457 3873 218715 222284 1770.75 1800 118 0.973 11.200708441096 279.52040570674 1318.6779110816
4041	23633330 4215 218715 222284 1770.75 1800 118 -4.5 2.5 -21.84888535738 267.00839407415
4040	23637545 4256 218680 222284 1770.5 1800 119 0 15.02499961853 1126.619671952 14153.89164535
4039	23641801 4320 218645 222284 1770.25 1800 120 483.14999389648 483.14999389648 57977.999267578 28012069.992261
4038	23646121 4297 218645 222284 1770.25 1800 120 167.29217529297 449.27584838867 40906.492889404 15063007.79389
4049	23650418 3788 218926 222284 1772.25 1800 112 0.973 10.756497587458 407.87680051268 2581.9631070463
4048	23654206 3542 218926 222284 1772.25 1800 112 -4.6926383972168 2.5 28.39999961853 374.19098153522
4047	23657748 3787 218891 222284 1772 1800 113 5.6500000953674 14.39999961853 1321.4425182343 16222.624035356
4046	23661535 4096 218855 222284 1771.75 1800 114 486.83145141602 785.82187652588 70350.883087158 44552636.153899
4045	23665631 4102 218855 222284 1771.75 1800 114 451.91125488281 483.14999389648 54849.34286499 26394004.489126
4056	23669733 2833 219656 222284 1777.75 1800 90 0.973 10.756497587458 229.2712884562 1246.4972961369
4055	23672566 3143 219656 222284 1777.75 1800 90 -3.0375652313232 2.5 -16.75173664093 185.36909762435
4054	23675709 3258 219623 222284 1777.5 1800 91 1.4620659351349 15.369374275208 1030.5251252651 13142.699651137
4053	23678967 3312 219590 222284 1777.25 1800 92 483.14999389648 483.14999389648 44449.799438477 21475920.3274
4052	23682279 3287 219590 222284 1777.25 1800 92 184.17810058594 441.40618896484 29762.535644531 10303495.759629
4063	23685566 2909 219789 222284 1778.75 1800 86 0.973 11.648172402475 262.41644690826 1455.1915105638
4062	23688475 2983 219789 222284 1778.75 1800 86 -3.7636318206787 2.5 -12.413541793823 266.07481367539
4061	23691458 3110 219756 222284 1778.5 1800 87 2.5466146469116 15.64999961853 1145.5652704239 16095.906888422
4060	23694568 3142 219722 222284 1778.25 1800 88 184.17810058594 470.04190063477 28659.628234863 10081372.573563
4059	23697710 3168 219722 222284 1778.25 1800 88 486.85000610352 486.85000610352 42842.800537109 20858017.702983
4070	23700878 1396 221193 222284 1790.5 1800 39 1.6778656626784 11.200708441096 171.9988183026 1155.1770107883
4069	23702274 1321 221193 222284 1790.5 1800 39 -0.12916564941406 2.5 36.983854293823 93.788124805174
4068	23703595 1427 221164 222284 1790.25 1800 40 5.6500000953674 15.02499961853 523.28712081909 7179.4498659991
4067	23705022 1470 221135 222284 1790 1800 41 659.96496582031 785.82187652588 29978.747016907 21984990.562975
4066	23706492 1474 221135 222284 1790 1800 41 483.14999389648 483.14999389648 19809.149749756 9570790.5806891
4077	23707966 1169 221364 222284 1792 1800 33 0.973 11.200708441096 155.91790983768 1116.7417153951
4076	23709135 1072 221364 222284 1792 1800 33 -0.34135818481445 2.5 36.142263412476 94.016323941909
4075	23710207 1210 221333 222284 1791.75 1800 34 5.6500000953674 15.02499961853 430.72385311127 5753.6576194046
4074	23711417 1240 221304 222284 1791.5 1800 35 184.17810058594 286.95819091797 7981.1723022461 1857170.6588862
4073	23712657 1259 221304 222284 1791.5 1800 35 486.85000610352 486.85000610352 17039.750213623 8295802.4955048
4084	23713916 1127 221395 222284 1792.25 1800 32 0.973 11.200708441096 152.41041859424 1107.863859127
4083	23715043 1030 221395 222284 1792.25 1800 32 -0.46867370605469 2.5 35.639402389526 94.252027153012
4082	23716073 1176 221364 222284 1792 1800 33 5.6500000953674 15.02499961853 414.25301170349 5485.6158975602
4081	23717249 1219 221333 222284 1791.75 1800 34 706.3337097168 805.05782318115 25942.446098328 19827826.248696
4080	23718468 1223 221333 222284 1791.75 1800 34 483.14999389648 483.14999389648 16427.09979248 7936753.1644739
4091	23719691 463 221938 222284 1797 1800 13 5.2162187258585 10.315404520939 100.64515864481 812.01557512667
4090	23720154 322 221938 222284 1797 1800 13 2.4999980926514 2.5 32.499998092651 81.24999046326
4089	23720476 496 221909 222284 1796.75 1800 14 5.6500000953674 13.77499961853 135.97499656677 1409.5242963886
4088	23720972 539 221880 222284 1796.5 1800 15 486.85000610352 486.85000610352 7302.7500915527 3555343.9266449
4087	23721511 539 221880 222284 1796.5 1800 15 756.28750610352 785.82187652588 11609.025123596 8985974.340013
4098	23722050 107 222221 222284 1799.5 1800 3 5.2162187258585 6.0461819274774 16.892854010144 95.467258699338
4097	23722157 71 222221 222284 1799.5 1800 3 2.5 2.5 7.5 18.75
4096	23722228 144 222190 222284 1799.25 1800 4 5.6500000953674 7.5250000953674 26.35000038147 175.53375502586
4095	23722372 178 222159 222284 1799 1800 5 486.85000610352 486.85000610352 2434.2500305176 1185114.642215
4094	23722550 178 222159 222284 1799 1800 5 796.94376373291 801.41563415527 3998.4469299316 3197530.4294176
4105	23722728 107 222221 222284 1799.5 1800 3 5.2162187258585 6.0461819274774 16.892854010144 95.467258699338
4104	23722835 71 222221 222284 1799.5 1800 3 2.5 2.5 7.5 18.75
4103	23722906 144 222190 222284 1799.25 1800 4 5.6500000953674 7.5250000953674 26.35000038147 175.53375502586
4102	23723050 178 222159 222284 1799 1800 5 781.35000610352 785.82187652588 3920.4781417847 3074044.631164
4101	23723228 178 222159 222284 1799 1800 5 483.14999389648 483.14999389648 2415.7499694824 1167169.5830109
2	23723406 517 0 222283 0 1800 31 0 31 622 13432
3	23723923 534 0 222283 0 1800 31 0 251 3849 659991
