version 2
run nodebug-26-20200605-15:35:25-11144
attr configname nodebug
attr datetime 20200605-15:35:25
attr experiment nodebug
attr inifile omnetpp.ini
attr iterationvars ""
attr iterationvars2 $repetition=26
attr measurement ""
attr network "\"org.car2x.veins.modules.application.ExtTraCIScenarioManagerLaunchd.IntersectionExampleScenario\""
attr processid 11144
attr repetition 26
attr replication #26
attr resultdir results
attr runnumber 26
attr seedset 26
param **.coreDebug false
param **.debug false
param *.**.nic.mac1609_4.bitrate 18Mbps
param *.**.nic.mac1609_4.txPower 20mW
param *.**.nic.mac1609_4.useServiceChannel false
param *.**.nic.phy80211p.analogueModels "xmldoc(\"config.xml\")"
param *.**.nic.phy80211p.decider "xmldoc(\"config.xml\")"
param *.**.nic.phy80211p.sensitivity -89dBm
param *.**.nic.phy80211p.thermalNoise -110dBm
param *.**.nic.phy80211p.usePropagationDelay true
param *.**.nic.phy80211p.useThermalNoise true
param *.annotations.draw false
param *.connectionManager.alpha 2.0
param *.connectionManager.carrierFrequency "5.890e9 Hz"
param *.connectionManager.pMax 20mW
param *.connectionManager.sat -89dBm
param *.connectionManager.sendDirect true
param *.manager.autoShutdown true
param *.manager.host "\"localhost\""
param *.manager.launchConfig "xmldoc(\"paramics.launchd.xml\")"
param *.manager.margin 25
param *.manager.moduleDisplayString "\"\""
param *.manager.moduleName "\"node\""
param *.manager.moduleType "\"org.car2x.veins.nodes.Car\""
param *.manager.port 9999
param *.manager.updateInterval 250ms
param *.node[*0].veinsmobility.accidentCount 0
param *.node[*0].veinsmobility.accidentDuration 30s
param *.node[*0].veinsmobility.accidentStart 75s
param *.node[*].appl.LiderSelectZoneRadio 55.0
param *.node[*].appl.ShareDataZoneRadio 110.0
param *.node[*].appl.TiempoSemaforo 30.0
param *.node[*].appl.beaconInterval 1s
param *.node[*].appl.beaconPriority 3
param *.node[*].appl.dataOnSch false
param *.node[*].appl.dataPriority 2
param *.node[*].appl.debug false
param *.node[*].appl.headerLength "256 bit"
param *.node[*].appl.maxOffset 0.005s
param *.node[*].appl.sendBeacons false
param *.node[*].appl.sendData true
param *.node[*].applType "\"Dummy\""
param *.node[*].mobilityType "\"TraCIMobility\""
param *.node[*].mobilityType.debug true
param *.node[*].veinsmobility.x 0
param *.node[*].veinsmobility.y 0
param *.node[*].veinsmobility.z 1.895
param *.node[*].veinsmobilityType "\"org.car2x.veins.modules.mobility.traci.TraCIMobility\""
param *.node[*].veinsmobilityType.debug true
param *.playgroundSizeX 8500m
param *.playgroundSizeY 8500m
param *.playgroundSizeZ 50m
param *.world.use2D false
param *.world.useTorus false

scalar IntersectionExampleScenario.node[6].appl 	VehicleRemoved 	0
scalar IntersectionExampleScenario.node[6].appl 	ArrivedAtDest 	1
scalar IntersectionExampleScenario.node[6].appl 	IntersectionEnterTime 	14
scalar IntersectionExampleScenario.node[6].appl 	IntersectionExitTime 	37.786882946442
scalar IntersectionExampleScenario.node[6].appl 	NumberOfCollisions 	0
scalar IntersectionExampleScenario.node[6].nic.phy80211p 	busyTime 	0
scalar IntersectionExampleScenario.node[6].nic.mac1609_4 	ReceivedUnicastPackets 	0
scalar IntersectionExampleScenario.node[6].nic.mac1609_4 	ReceivedBroadcasts 	0
scalar IntersectionExampleScenario.node[6].nic.mac1609_4 	SentPackets 	0
scalar IntersectionExampleScenario.node[6].nic.mac1609_4 	SNIRLostPackets 	0
scalar IntersectionExampleScenario.node[6].nic.mac1609_4 	RXTXLostPackets 	0
scalar IntersectionExampleScenario.node[6].nic.mac1609_4 	TotalLostPackets 	0
scalar IntersectionExampleScenario.node[6].nic.mac1609_4 	DroppedPacketsInMac 	0
scalar IntersectionExampleScenario.node[6].nic.mac1609_4 	TooLittleTime 	0
scalar IntersectionExampleScenario.node[6].nic.mac1609_4 	TimesIntoBackoff 	0
scalar IntersectionExampleScenario.node[6].nic.mac1609_4 	SlotsBackoff 	0
scalar IntersectionExampleScenario.node[6].nic.mac1609_4 	NumInternalContention 	0
scalar IntersectionExampleScenario.node[6].nic.mac1609_4 	totalBusyTime 	0
scalar IntersectionExampleScenario.node[6].veinsmobility 	startTime 	14
scalar IntersectionExampleScenario.node[6].veinsmobility 	totalTime 	40.5
scalar IntersectionExampleScenario.node[6].veinsmobility 	stopTime 	54.75
scalar IntersectionExampleScenario.node[6].veinsmobility 	minSpeed 	5.6500000953674
scalar IntersectionExampleScenario.node[6].veinsmobility 	maxSpeed 	15.02499961853
scalar IntersectionExampleScenario.node[6].veinsmobility 	totalDistance 	550.02752171436
scalar IntersectionExampleScenario.node[6].veinsmobility 	totalCO2Emission 	119.40723941855
scalar IntersectionExampleScenario.node[0].appl 	VehicleRemoved 	0
scalar IntersectionExampleScenario.node[0].appl 	ArrivedAtDest 	1
scalar IntersectionExampleScenario.node[0].appl 	IntersectionEnterTime 	1.25
scalar IntersectionExampleScenario.node[0].appl 	IntersectionExitTime 	38.598652592482
scalar IntersectionExampleScenario.node[0].appl 	NumberOfCollisions 	0
scalar IntersectionExampleScenario.node[0].nic.phy80211p 	busyTime 	0
scalar IntersectionExampleScenario.node[0].nic.mac1609_4 	ReceivedUnicastPackets 	0
scalar IntersectionExampleScenario.node[0].nic.mac1609_4 	ReceivedBroadcasts 	0
scalar IntersectionExampleScenario.node[0].nic.mac1609_4 	SentPackets 	0
scalar IntersectionExampleScenario.node[0].nic.mac1609_4 	SNIRLostPackets 	0
scalar IntersectionExampleScenario.node[0].nic.mac1609_4 	RXTXLostPackets 	0
scalar IntersectionExampleScenario.node[0].nic.mac1609_4 	TotalLostPackets 	0
scalar IntersectionExampleScenario.node[0].nic.mac1609_4 	DroppedPacketsInMac 	0
scalar IntersectionExampleScenario.node[0].nic.mac1609_4 	TooLittleTime 	0
scalar IntersectionExampleScenario.node[0].nic.mac1609_4 	TimesIntoBackoff 	0
scalar IntersectionExampleScenario.node[0].nic.mac1609_4 	SlotsBackoff 	0
scalar IntersectionExampleScenario.node[0].nic.mac1609_4 	NumInternalContention 	0
scalar IntersectionExampleScenario.node[0].nic.mac1609_4 	totalBusyTime 	0
scalar IntersectionExampleScenario.node[0].veinsmobility 	startTime 	1.25
scalar IntersectionExampleScenario.node[0].veinsmobility 	totalTime 	53.75
scalar IntersectionExampleScenario.node[0].veinsmobility 	stopTime 	55.25
scalar IntersectionExampleScenario.node[0].veinsmobility 	minSpeed 	0
scalar IntersectionExampleScenario.node[0].veinsmobility 	maxSpeed 	15.875
scalar IntersectionExampleScenario.node[0].veinsmobility 	totalDistance 	544.83437253386
scalar IntersectionExampleScenario.node[0].veinsmobility 	totalCO2Emission 	147.89445034678
scalar IntersectionExampleScenario.node[1].appl 	VehicleRemoved 	0
scalar IntersectionExampleScenario.node[1].appl 	ArrivedAtDest 	1
scalar IntersectionExampleScenario.node[1].appl 	IntersectionEnterTime 	4
scalar IntersectionExampleScenario.node[1].appl 	IntersectionExitTime 	41.312024017534
scalar IntersectionExampleScenario.node[1].appl 	NumberOfCollisions 	0
scalar IntersectionExampleScenario.node[1].nic.phy80211p 	busyTime 	0
scalar IntersectionExampleScenario.node[1].nic.mac1609_4 	ReceivedUnicastPackets 	0
scalar IntersectionExampleScenario.node[1].nic.mac1609_4 	ReceivedBroadcasts 	0
scalar IntersectionExampleScenario.node[1].nic.mac1609_4 	SentPackets 	0
scalar IntersectionExampleScenario.node[1].nic.mac1609_4 	SNIRLostPackets 	0
scalar IntersectionExampleScenario.node[1].nic.mac1609_4 	RXTXLostPackets 	0
scalar IntersectionExampleScenario.node[1].nic.mac1609_4 	TotalLostPackets 	0
scalar IntersectionExampleScenario.node[1].nic.mac1609_4 	DroppedPacketsInMac 	0
scalar IntersectionExampleScenario.node[1].nic.mac1609_4 	TooLittleTime 	0
scalar IntersectionExampleScenario.node[1].nic.mac1609_4 	TimesIntoBackoff 	0
scalar IntersectionExampleScenario.node[1].nic.mac1609_4 	SlotsBackoff 	0
scalar IntersectionExampleScenario.node[1].nic.mac1609_4 	NumInternalContention 	0
scalar IntersectionExampleScenario.node[1].nic.mac1609_4 	totalBusyTime 	0
scalar IntersectionExampleScenario.node[1].veinsmobility 	startTime 	4
scalar IntersectionExampleScenario.node[1].veinsmobility 	totalTime 	54
scalar IntersectionExampleScenario.node[1].veinsmobility 	stopTime 	58.25
scalar IntersectionExampleScenario.node[1].veinsmobility 	minSpeed 	0
scalar IntersectionExampleScenario.node[1].veinsmobility 	maxSpeed 	15.64999961853
scalar IntersectionExampleScenario.node[1].veinsmobility 	totalDistance 	559.51854632094
scalar IntersectionExampleScenario.node[1].veinsmobility 	totalCO2Emission 	146.10493333581
scalar IntersectionExampleScenario.node[4].appl 	VehicleRemoved 	0
scalar IntersectionExampleScenario.node[4].appl 	ArrivedAtDest 	1
scalar IntersectionExampleScenario.node[4].appl 	IntersectionEnterTime 	12.25
scalar IntersectionExampleScenario.node[4].appl 	IntersectionExitTime 	43.060686543933
scalar IntersectionExampleScenario.node[4].appl 	NumberOfCollisions 	0
scalar IntersectionExampleScenario.node[4].nic.phy80211p 	busyTime 	0
scalar IntersectionExampleScenario.node[4].nic.mac1609_4 	ReceivedUnicastPackets 	0
scalar IntersectionExampleScenario.node[4].nic.mac1609_4 	ReceivedBroadcasts 	0
scalar IntersectionExampleScenario.node[4].nic.mac1609_4 	SentPackets 	0
scalar IntersectionExampleScenario.node[4].nic.mac1609_4 	SNIRLostPackets 	0
scalar IntersectionExampleScenario.node[4].nic.mac1609_4 	RXTXLostPackets 	0
scalar IntersectionExampleScenario.node[4].nic.mac1609_4 	TotalLostPackets 	0
scalar IntersectionExampleScenario.node[4].nic.mac1609_4 	DroppedPacketsInMac 	0
scalar IntersectionExampleScenario.node[4].nic.mac1609_4 	TooLittleTime 	0
scalar IntersectionExampleScenario.node[4].nic.mac1609_4 	TimesIntoBackoff 	0
scalar IntersectionExampleScenario.node[4].nic.mac1609_4 	SlotsBackoff 	0
scalar IntersectionExampleScenario.node[4].nic.mac1609_4 	NumInternalContention 	0
scalar IntersectionExampleScenario.node[4].nic.mac1609_4 	totalBusyTime 	0
scalar IntersectionExampleScenario.node[4].veinsmobility 	startTime 	12.25
scalar IntersectionExampleScenario.node[4].veinsmobility 	totalTime 	46
scalar IntersectionExampleScenario.node[4].veinsmobility 	stopTime 	58.5
scalar IntersectionExampleScenario.node[4].veinsmobility 	minSpeed 	2.750941991806
scalar IntersectionExampleScenario.node[4].veinsmobility 	maxSpeed 	16.125
scalar IntersectionExampleScenario.node[4].veinsmobility 	totalDistance 	551.46182250977
scalar IntersectionExampleScenario.node[4].veinsmobility 	totalCO2Emission 	141.70501175948
scalar IntersectionExampleScenario.node[5].appl 	VehicleRemoved 	0
scalar IntersectionExampleScenario.node[5].appl 	ArrivedAtDest 	1
scalar IntersectionExampleScenario.node[5].appl 	IntersectionEnterTime 	12.75
scalar IntersectionExampleScenario.node[5].appl 	IntersectionExitTime 	45.017747807404
scalar IntersectionExampleScenario.node[5].appl 	NumberOfCollisions 	0
scalar IntersectionExampleScenario.node[5].nic.phy80211p 	busyTime 	0
scalar IntersectionExampleScenario.node[5].nic.mac1609_4 	ReceivedUnicastPackets 	0
scalar IntersectionExampleScenario.node[5].nic.mac1609_4 	ReceivedBroadcasts 	0
scalar IntersectionExampleScenario.node[5].nic.mac1609_4 	SentPackets 	0
scalar IntersectionExampleScenario.node[5].nic.mac1609_4 	SNIRLostPackets 	0
scalar IntersectionExampleScenario.node[5].nic.mac1609_4 	RXTXLostPackets 	0
scalar IntersectionExampleScenario.node[5].nic.mac1609_4 	TotalLostPackets 	0
scalar IntersectionExampleScenario.node[5].nic.mac1609_4 	DroppedPacketsInMac 	0
scalar IntersectionExampleScenario.node[5].nic.mac1609_4 	TooLittleTime 	0
scalar IntersectionExampleScenario.node[5].nic.mac1609_4 	TimesIntoBackoff 	0
scalar IntersectionExampleScenario.node[5].nic.mac1609_4 	SlotsBackoff 	0
scalar IntersectionExampleScenario.node[5].nic.mac1609_4 	NumInternalContention 	0
scalar IntersectionExampleScenario.node[5].nic.mac1609_4 	totalBusyTime 	0
scalar IntersectionExampleScenario.node[5].veinsmobility 	startTime 	12.75
scalar IntersectionExampleScenario.node[5].veinsmobility 	totalTime 	48.25
scalar IntersectionExampleScenario.node[5].veinsmobility 	stopTime 	61.25
scalar IntersectionExampleScenario.node[5].veinsmobility 	minSpeed 	2.6009292602539
scalar IntersectionExampleScenario.node[5].veinsmobility 	maxSpeed 	16.101501464844
scalar IntersectionExampleScenario.node[5].veinsmobility 	totalDistance 	567.3577170749
scalar IntersectionExampleScenario.node[5].veinsmobility 	totalCO2Emission 	151.28330931342
scalar IntersectionExampleScenario.node[9].appl 	VehicleRemoved 	0
scalar IntersectionExampleScenario.node[9].appl 	ArrivedAtDest 	1
scalar IntersectionExampleScenario.node[9].appl 	IntersectionEnterTime 	22
scalar IntersectionExampleScenario.node[9].appl 	IntersectionExitTime 	47.051132436638
scalar IntersectionExampleScenario.node[9].appl 	NumberOfCollisions 	0
scalar IntersectionExampleScenario.node[9].nic.phy80211p 	busyTime 	0
scalar IntersectionExampleScenario.node[9].nic.mac1609_4 	ReceivedUnicastPackets 	0
scalar IntersectionExampleScenario.node[9].nic.mac1609_4 	ReceivedBroadcasts 	0
scalar IntersectionExampleScenario.node[9].nic.mac1609_4 	SentPackets 	0
scalar IntersectionExampleScenario.node[9].nic.mac1609_4 	SNIRLostPackets 	0
scalar IntersectionExampleScenario.node[9].nic.mac1609_4 	RXTXLostPackets 	0
scalar IntersectionExampleScenario.node[9].nic.mac1609_4 	TotalLostPackets 	0
scalar IntersectionExampleScenario.node[9].nic.mac1609_4 	DroppedPacketsInMac 	0
scalar IntersectionExampleScenario.node[9].nic.mac1609_4 	TooLittleTime 	0
scalar IntersectionExampleScenario.node[9].nic.mac1609_4 	TimesIntoBackoff 	0
scalar IntersectionExampleScenario.node[9].nic.mac1609_4 	SlotsBackoff 	0
scalar IntersectionExampleScenario.node[9].nic.mac1609_4 	NumInternalContention 	0
scalar IntersectionExampleScenario.node[9].nic.mac1609_4 	totalBusyTime 	0
scalar IntersectionExampleScenario.node[9].veinsmobility 	startTime 	22
scalar IntersectionExampleScenario.node[9].veinsmobility 	totalTime 	40.75
scalar IntersectionExampleScenario.node[9].veinsmobility 	stopTime 	63
scalar IntersectionExampleScenario.node[9].veinsmobility 	minSpeed 	5.6500000953674
scalar IntersectionExampleScenario.node[9].veinsmobility 	maxSpeed 	15.64999961853
scalar IntersectionExampleScenario.node[9].veinsmobility 	totalDistance 	551.22511291504
scalar IntersectionExampleScenario.node[9].veinsmobility 	totalCO2Emission 	131.13099924126
scalar IntersectionExampleScenario.node[12].appl 	VehicleRemoved 	0
scalar IntersectionExampleScenario.node[12].appl 	ArrivedAtDest 	1
scalar IntersectionExampleScenario.node[12].appl 	IntersectionEnterTime 	26.5
scalar IntersectionExampleScenario.node[12].appl 	IntersectionExitTime 	49.070861085493
scalar IntersectionExampleScenario.node[12].appl 	NumberOfCollisions 	0
scalar IntersectionExampleScenario.node[12].nic.phy80211p 	busyTime 	0
scalar IntersectionExampleScenario.node[12].nic.mac1609_4 	ReceivedUnicastPackets 	0
scalar IntersectionExampleScenario.node[12].nic.mac1609_4 	ReceivedBroadcasts 	0
scalar IntersectionExampleScenario.node[12].nic.mac1609_4 	SentPackets 	0
scalar IntersectionExampleScenario.node[12].nic.mac1609_4 	SNIRLostPackets 	0
scalar IntersectionExampleScenario.node[12].nic.mac1609_4 	RXTXLostPackets 	0
scalar IntersectionExampleScenario.node[12].nic.mac1609_4 	TotalLostPackets 	0
scalar IntersectionExampleScenario.node[12].nic.mac1609_4 	DroppedPacketsInMac 	0
scalar IntersectionExampleScenario.node[12].nic.mac1609_4 	TooLittleTime 	0
scalar IntersectionExampleScenario.node[12].nic.mac1609_4 	TimesIntoBackoff 	0
scalar IntersectionExampleScenario.node[12].nic.mac1609_4 	SlotsBackoff 	0
scalar IntersectionExampleScenario.node[12].nic.mac1609_4 	NumInternalContention 	0
scalar IntersectionExampleScenario.node[12].nic.mac1609_4 	totalBusyTime 	0
scalar IntersectionExampleScenario.node[12].veinsmobility 	startTime 	26.5
scalar IntersectionExampleScenario.node[12].veinsmobility 	totalTime 	38.5
scalar IntersectionExampleScenario.node[12].veinsmobility 	stopTime 	65.25
scalar IntersectionExampleScenario.node[12].veinsmobility 	minSpeed 	5.6500000953674
scalar IntersectionExampleScenario.node[12].veinsmobility 	maxSpeed 	16.5
scalar IntersectionExampleScenario.node[12].veinsmobility 	totalDistance 	520.39995935391
scalar IntersectionExampleScenario.node[12].veinsmobility 	totalCO2Emission 	124.82453680003
scalar IntersectionExampleScenario.node[11].appl 	VehicleRemoved 	0
scalar IntersectionExampleScenario.node[11].appl 	ArrivedAtDest 	1
scalar IntersectionExampleScenario.node[11].appl 	IntersectionEnterTime 	26.25
scalar IntersectionExampleScenario.node[11].appl 	IntersectionExitTime 	52.0331099795
scalar IntersectionExampleScenario.node[11].appl 	NumberOfCollisions 	0
scalar IntersectionExampleScenario.node[11].nic.phy80211p 	busyTime 	0
scalar IntersectionExampleScenario.node[11].nic.mac1609_4 	ReceivedUnicastPackets 	0
scalar IntersectionExampleScenario.node[11].nic.mac1609_4 	ReceivedBroadcasts 	0
scalar IntersectionExampleScenario.node[11].nic.mac1609_4 	SentPackets 	0
scalar IntersectionExampleScenario.node[11].nic.mac1609_4 	SNIRLostPackets 	0
scalar IntersectionExampleScenario.node[11].nic.mac1609_4 	RXTXLostPackets 	0
scalar IntersectionExampleScenario.node[11].nic.mac1609_4 	TotalLostPackets 	0
scalar IntersectionExampleScenario.node[11].nic.mac1609_4 	DroppedPacketsInMac 	0
scalar IntersectionExampleScenario.node[11].nic.mac1609_4 	TooLittleTime 	0
scalar IntersectionExampleScenario.node[11].nic.mac1609_4 	TimesIntoBackoff 	0
scalar IntersectionExampleScenario.node[11].nic.mac1609_4 	SlotsBackoff 	0
scalar IntersectionExampleScenario.node[11].nic.mac1609_4 	NumInternalContention 	0
scalar IntersectionExampleScenario.node[11].nic.mac1609_4 	totalBusyTime 	0
scalar IntersectionExampleScenario.node[11].veinsmobility 	startTime 	26.25
scalar IntersectionExampleScenario.node[11].veinsmobility 	totalTime 	43.5
scalar IntersectionExampleScenario.node[11].veinsmobility 	stopTime 	70
scalar IntersectionExampleScenario.node[11].veinsmobility 	minSpeed 	4.7746906280518
scalar IntersectionExampleScenario.node[11].veinsmobility 	maxSpeed 	14.625
scalar IntersectionExampleScenario.node[11].veinsmobility 	totalDistance 	549.5988661947
scalar IntersectionExampleScenario.node[11].veinsmobility 	totalCO2Emission 	122.381107034
scalar IntersectionExampleScenario.node[2].appl 	VehicleRemoved 	0
scalar IntersectionExampleScenario.node[2].appl 	ArrivedAtDest 	1
scalar IntersectionExampleScenario.node[2].appl 	IntersectionEnterTime 	10.5
scalar IntersectionExampleScenario.node[2].appl 	IntersectionExitTime 	67.567353282997
scalar IntersectionExampleScenario.node[2].appl 	NumberOfCollisions 	0
scalar IntersectionExampleScenario.node[2].nic.phy80211p 	busyTime 	0
scalar IntersectionExampleScenario.node[2].nic.mac1609_4 	ReceivedUnicastPackets 	0
scalar IntersectionExampleScenario.node[2].nic.mac1609_4 	ReceivedBroadcasts 	0
scalar IntersectionExampleScenario.node[2].nic.mac1609_4 	SentPackets 	0
scalar IntersectionExampleScenario.node[2].nic.mac1609_4 	SNIRLostPackets 	0
scalar IntersectionExampleScenario.node[2].nic.mac1609_4 	RXTXLostPackets 	0
scalar IntersectionExampleScenario.node[2].nic.mac1609_4 	TotalLostPackets 	0
scalar IntersectionExampleScenario.node[2].nic.mac1609_4 	DroppedPacketsInMac 	0
scalar IntersectionExampleScenario.node[2].nic.mac1609_4 	TooLittleTime 	0
scalar IntersectionExampleScenario.node[2].nic.mac1609_4 	TimesIntoBackoff 	0
scalar IntersectionExampleScenario.node[2].nic.mac1609_4 	SlotsBackoff 	0
scalar IntersectionExampleScenario.node[2].nic.mac1609_4 	NumInternalContention 	0
scalar IntersectionExampleScenario.node[2].nic.mac1609_4 	totalBusyTime 	0
scalar IntersectionExampleScenario.node[2].veinsmobility 	startTime 	10.5
scalar IntersectionExampleScenario.node[2].veinsmobility 	totalTime 	73
scalar IntersectionExampleScenario.node[2].veinsmobility 	stopTime 	83.75
scalar IntersectionExampleScenario.node[2].veinsmobility 	minSpeed 	0
scalar IntersectionExampleScenario.node[2].veinsmobility 	maxSpeed 	16.5
scalar IntersectionExampleScenario.node[2].veinsmobility 	totalDistance 	545.42074490935
scalar IntersectionExampleScenario.node[2].veinsmobility 	totalCO2Emission 	172.32889338877
scalar IntersectionExampleScenario.node[3].appl 	VehicleRemoved 	0
scalar IntersectionExampleScenario.node[3].appl 	ArrivedAtDest 	1
scalar IntersectionExampleScenario.node[3].appl 	IntersectionEnterTime 	11.75
scalar IntersectionExampleScenario.node[3].appl 	IntersectionExitTime 	69.286689938745
scalar IntersectionExampleScenario.node[3].appl 	NumberOfCollisions 	0
scalar IntersectionExampleScenario.node[3].nic.phy80211p 	busyTime 	0
scalar IntersectionExampleScenario.node[3].nic.mac1609_4 	ReceivedUnicastPackets 	0
scalar IntersectionExampleScenario.node[3].nic.mac1609_4 	ReceivedBroadcasts 	0
scalar IntersectionExampleScenario.node[3].nic.mac1609_4 	SentPackets 	0
scalar IntersectionExampleScenario.node[3].nic.mac1609_4 	SNIRLostPackets 	0
scalar IntersectionExampleScenario.node[3].nic.mac1609_4 	RXTXLostPackets 	0
scalar IntersectionExampleScenario.node[3].nic.mac1609_4 	TotalLostPackets 	0
scalar IntersectionExampleScenario.node[3].nic.mac1609_4 	DroppedPacketsInMac 	0
scalar IntersectionExampleScenario.node[3].nic.mac1609_4 	TooLittleTime 	0
scalar IntersectionExampleScenario.node[3].nic.mac1609_4 	TimesIntoBackoff 	0
scalar IntersectionExampleScenario.node[3].nic.mac1609_4 	SlotsBackoff 	0
scalar IntersectionExampleScenario.node[3].nic.mac1609_4 	NumInternalContention 	0
scalar IntersectionExampleScenario.node[3].nic.mac1609_4 	totalBusyTime 	0
scalar IntersectionExampleScenario.node[3].veinsmobility 	startTime 	11.75
scalar IntersectionExampleScenario.node[3].veinsmobility 	totalTime 	73.5
scalar IntersectionExampleScenario.node[3].veinsmobility 	stopTime 	85.5
scalar IntersectionExampleScenario.node[3].veinsmobility 	minSpeed 	0
scalar IntersectionExampleScenario.node[3].veinsmobility 	maxSpeed 	15.64999961853
scalar IntersectionExampleScenario.node[3].veinsmobility 	totalDistance 	573.91672515869
scalar IntersectionExampleScenario.node[3].veinsmobility 	totalCO2Emission 	167.82213079872
scalar IntersectionExampleScenario.node[8].appl 	VehicleRemoved 	0
scalar IntersectionExampleScenario.node[8].appl 	ArrivedAtDest 	1
scalar IntersectionExampleScenario.node[8].appl 	IntersectionEnterTime 	17.25
scalar IntersectionExampleScenario.node[8].appl 	IntersectionExitTime 	71.585324214248
scalar IntersectionExampleScenario.node[8].appl 	NumberOfCollisions 	0
scalar IntersectionExampleScenario.node[8].nic.phy80211p 	busyTime 	0
scalar IntersectionExampleScenario.node[8].nic.mac1609_4 	ReceivedUnicastPackets 	0
scalar IntersectionExampleScenario.node[8].nic.mac1609_4 	ReceivedBroadcasts 	0
scalar IntersectionExampleScenario.node[8].nic.mac1609_4 	SentPackets 	0
scalar IntersectionExampleScenario.node[8].nic.mac1609_4 	SNIRLostPackets 	0
scalar IntersectionExampleScenario.node[8].nic.mac1609_4 	RXTXLostPackets 	0
scalar IntersectionExampleScenario.node[8].nic.mac1609_4 	TotalLostPackets 	0
scalar IntersectionExampleScenario.node[8].nic.mac1609_4 	DroppedPacketsInMac 	0
scalar IntersectionExampleScenario.node[8].nic.mac1609_4 	TooLittleTime 	0
scalar IntersectionExampleScenario.node[8].nic.mac1609_4 	TimesIntoBackoff 	0
scalar IntersectionExampleScenario.node[8].nic.mac1609_4 	SlotsBackoff 	0
scalar IntersectionExampleScenario.node[8].nic.mac1609_4 	NumInternalContention 	0
scalar IntersectionExampleScenario.node[8].nic.mac1609_4 	totalBusyTime 	0
scalar IntersectionExampleScenario.node[8].veinsmobility 	startTime 	17.25
scalar IntersectionExampleScenario.node[8].veinsmobility 	totalTime 	71
scalar IntersectionExampleScenario.node[8].veinsmobility 	stopTime 	88.5
scalar IntersectionExampleScenario.node[8].veinsmobility 	minSpeed 	0
scalar IntersectionExampleScenario.node[8].veinsmobility 	maxSpeed 	14.671185493469
scalar IntersectionExampleScenario.node[8].veinsmobility 	totalDistance 	556.45487976074
scalar IntersectionExampleScenario.node[8].veinsmobility 	totalCO2Emission 	154.07424355758
scalar IntersectionExampleScenario.node[17].appl 	VehicleRemoved 	0
scalar IntersectionExampleScenario.node[17].appl 	ArrivedAtDest 	1
scalar IntersectionExampleScenario.node[17].appl 	IntersectionEnterTime 	61.25
scalar IntersectionExampleScenario.node[17].appl 	IntersectionExitTime 	83.556535648124
scalar IntersectionExampleScenario.node[17].appl 	NumberOfCollisions 	0
scalar IntersectionExampleScenario.node[17].nic.phy80211p 	busyTime 	0
scalar IntersectionExampleScenario.node[17].nic.mac1609_4 	ReceivedUnicastPackets 	0
scalar IntersectionExampleScenario.node[17].nic.mac1609_4 	ReceivedBroadcasts 	0
scalar IntersectionExampleScenario.node[17].nic.mac1609_4 	SentPackets 	0
scalar IntersectionExampleScenario.node[17].nic.mac1609_4 	SNIRLostPackets 	0
scalar IntersectionExampleScenario.node[17].nic.mac1609_4 	RXTXLostPackets 	0
scalar IntersectionExampleScenario.node[17].nic.mac1609_4 	TotalLostPackets 	0
scalar IntersectionExampleScenario.node[17].nic.mac1609_4 	DroppedPacketsInMac 	0
scalar IntersectionExampleScenario.node[17].nic.mac1609_4 	TooLittleTime 	0
scalar IntersectionExampleScenario.node[17].nic.mac1609_4 	TimesIntoBackoff 	0
scalar IntersectionExampleScenario.node[17].nic.mac1609_4 	SlotsBackoff 	0
scalar IntersectionExampleScenario.node[17].nic.mac1609_4 	NumInternalContention 	0
scalar IntersectionExampleScenario.node[17].nic.mac1609_4 	totalBusyTime 	0
scalar IntersectionExampleScenario.node[17].veinsmobility 	startTime 	61.25
scalar IntersectionExampleScenario.node[17].veinsmobility 	totalTime 	37.5
scalar IntersectionExampleScenario.node[17].veinsmobility 	stopTime 	99
scalar IntersectionExampleScenario.node[17].veinsmobility 	minSpeed 	5.6500000953674
scalar IntersectionExampleScenario.node[17].veinsmobility 	maxSpeed 	16.27499961853
scalar IntersectionExampleScenario.node[17].veinsmobility 	totalDistance 	551.9393081665
scalar IntersectionExampleScenario.node[17].veinsmobility 	totalCO2Emission 	122.15621062424
scalar IntersectionExampleScenario.node[7].appl 	VehicleRemoved 	0
scalar IntersectionExampleScenario.node[7].appl 	ArrivedAtDest 	1
scalar IntersectionExampleScenario.node[7].appl 	IntersectionEnterTime 	16.5
scalar IntersectionExampleScenario.node[7].appl 	IntersectionExitTime 	90.365412431944
scalar IntersectionExampleScenario.node[7].appl 	NumberOfCollisions 	0
scalar IntersectionExampleScenario.node[7].nic.phy80211p 	busyTime 	0
scalar IntersectionExampleScenario.node[7].nic.mac1609_4 	ReceivedUnicastPackets 	0
scalar IntersectionExampleScenario.node[7].nic.mac1609_4 	ReceivedBroadcasts 	0
scalar IntersectionExampleScenario.node[7].nic.mac1609_4 	SentPackets 	0
scalar IntersectionExampleScenario.node[7].nic.mac1609_4 	SNIRLostPackets 	0
scalar IntersectionExampleScenario.node[7].nic.mac1609_4 	RXTXLostPackets 	0
scalar IntersectionExampleScenario.node[7].nic.mac1609_4 	TotalLostPackets 	0
scalar IntersectionExampleScenario.node[7].nic.mac1609_4 	DroppedPacketsInMac 	0
scalar IntersectionExampleScenario.node[7].nic.mac1609_4 	TooLittleTime 	0
scalar IntersectionExampleScenario.node[7].nic.mac1609_4 	TimesIntoBackoff 	0
scalar IntersectionExampleScenario.node[7].nic.mac1609_4 	SlotsBackoff 	0
scalar IntersectionExampleScenario.node[7].nic.mac1609_4 	NumInternalContention 	0
scalar IntersectionExampleScenario.node[7].nic.mac1609_4 	totalBusyTime 	0
scalar IntersectionExampleScenario.node[7].veinsmobility 	startTime 	16.5
scalar IntersectionExampleScenario.node[7].veinsmobility 	totalTime 	89.75
scalar IntersectionExampleScenario.node[7].veinsmobility 	stopTime 	106.5
scalar IntersectionExampleScenario.node[7].veinsmobility 	minSpeed 	0
scalar IntersectionExampleScenario.node[7].veinsmobility 	maxSpeed 	15.375
scalar IntersectionExampleScenario.node[7].veinsmobility 	totalDistance 	569.21183776855
scalar IntersectionExampleScenario.node[7].veinsmobility 	totalCO2Emission 	185.43935048519
scalar IntersectionExampleScenario.node[16].appl 	VehicleRemoved 	0
scalar IntersectionExampleScenario.node[16].appl 	ArrivedAtDest 	1
scalar IntersectionExampleScenario.node[16].appl 	IntersectionEnterTime 	55
scalar IntersectionExampleScenario.node[16].appl 	IntersectionExitTime 	89.563733416988
scalar IntersectionExampleScenario.node[16].appl 	NumberOfCollisions 	0
scalar IntersectionExampleScenario.node[16].nic.phy80211p 	busyTime 	0
scalar IntersectionExampleScenario.node[16].nic.mac1609_4 	ReceivedUnicastPackets 	0
scalar IntersectionExampleScenario.node[16].nic.mac1609_4 	ReceivedBroadcasts 	0
scalar IntersectionExampleScenario.node[16].nic.mac1609_4 	SentPackets 	0
scalar IntersectionExampleScenario.node[16].nic.mac1609_4 	SNIRLostPackets 	0
scalar IntersectionExampleScenario.node[16].nic.mac1609_4 	RXTXLostPackets 	0
scalar IntersectionExampleScenario.node[16].nic.mac1609_4 	TotalLostPackets 	0
scalar IntersectionExampleScenario.node[16].nic.mac1609_4 	DroppedPacketsInMac 	0
scalar IntersectionExampleScenario.node[16].nic.mac1609_4 	TooLittleTime 	0
scalar IntersectionExampleScenario.node[16].nic.mac1609_4 	TimesIntoBackoff 	0
scalar IntersectionExampleScenario.node[16].nic.mac1609_4 	SlotsBackoff 	0
scalar IntersectionExampleScenario.node[16].nic.mac1609_4 	NumInternalContention 	0
scalar IntersectionExampleScenario.node[16].nic.mac1609_4 	totalBusyTime 	0
scalar IntersectionExampleScenario.node[16].veinsmobility 	startTime 	55
scalar IntersectionExampleScenario.node[16].veinsmobility 	totalTime 	52.25
scalar IntersectionExampleScenario.node[16].veinsmobility 	stopTime 	107.5
scalar IntersectionExampleScenario.node[16].veinsmobility 	minSpeed 	0
scalar IntersectionExampleScenario.node[16].veinsmobility 	maxSpeed 	14.625
scalar IntersectionExampleScenario.node[16].veinsmobility 	totalDistance 	545.78264523894
scalar IntersectionExampleScenario.node[16].veinsmobility 	totalCO2Emission 	136.6843147813
scalar IntersectionExampleScenario.node[10].appl 	VehicleRemoved 	0
scalar IntersectionExampleScenario.node[10].appl 	ArrivedAtDest 	1
scalar IntersectionExampleScenario.node[10].appl 	IntersectionEnterTime 	22.5
scalar IntersectionExampleScenario.node[10].appl 	IntersectionExitTime 	92.57901616345
scalar IntersectionExampleScenario.node[10].appl 	NumberOfCollisions 	0
scalar IntersectionExampleScenario.node[10].nic.phy80211p 	busyTime 	0
scalar IntersectionExampleScenario.node[10].nic.mac1609_4 	ReceivedUnicastPackets 	0
scalar IntersectionExampleScenario.node[10].nic.mac1609_4 	ReceivedBroadcasts 	0
scalar IntersectionExampleScenario.node[10].nic.mac1609_4 	SentPackets 	0
scalar IntersectionExampleScenario.node[10].nic.mac1609_4 	SNIRLostPackets 	0
scalar IntersectionExampleScenario.node[10].nic.mac1609_4 	RXTXLostPackets 	0
scalar IntersectionExampleScenario.node[10].nic.mac1609_4 	TotalLostPackets 	0
scalar IntersectionExampleScenario.node[10].nic.mac1609_4 	DroppedPacketsInMac 	0
scalar IntersectionExampleScenario.node[10].nic.mac1609_4 	TooLittleTime 	0
scalar IntersectionExampleScenario.node[10].nic.mac1609_4 	TimesIntoBackoff 	0
scalar IntersectionExampleScenario.node[10].nic.mac1609_4 	SlotsBackoff 	0
scalar IntersectionExampleScenario.node[10].nic.mac1609_4 	NumInternalContention 	0
scalar IntersectionExampleScenario.node[10].nic.mac1609_4 	totalBusyTime 	0
scalar IntersectionExampleScenario.node[10].veinsmobility 	startTime 	22.5
scalar IntersectionExampleScenario.node[10].veinsmobility 	totalTime 	86.25
scalar IntersectionExampleScenario.node[10].veinsmobility 	stopTime 	109
scalar IntersectionExampleScenario.node[10].veinsmobility 	minSpeed 	0
scalar IntersectionExampleScenario.node[10].veinsmobility 	maxSpeed 	15.410471916199
scalar IntersectionExampleScenario.node[10].veinsmobility 	totalDistance 	551.12296295166
scalar IntersectionExampleScenario.node[10].veinsmobility 	totalCO2Emission 	174.28201000326
scalar IntersectionExampleScenario.node[18].appl 	VehicleRemoved 	0
scalar IntersectionExampleScenario.node[18].appl 	ArrivedAtDest 	1
scalar IntersectionExampleScenario.node[18].appl 	IntersectionEnterTime 	65.5
scalar IntersectionExampleScenario.node[18].appl 	IntersectionExitTime 	92.536861322704
scalar IntersectionExampleScenario.node[18].appl 	NumberOfCollisions 	0
scalar IntersectionExampleScenario.node[18].nic.phy80211p 	busyTime 	0
scalar IntersectionExampleScenario.node[18].nic.mac1609_4 	ReceivedUnicastPackets 	0
scalar IntersectionExampleScenario.node[18].nic.mac1609_4 	ReceivedBroadcasts 	0
scalar IntersectionExampleScenario.node[18].nic.mac1609_4 	SentPackets 	0
scalar IntersectionExampleScenario.node[18].nic.mac1609_4 	SNIRLostPackets 	0
scalar IntersectionExampleScenario.node[18].nic.mac1609_4 	RXTXLostPackets 	0
scalar IntersectionExampleScenario.node[18].nic.mac1609_4 	TotalLostPackets 	0
scalar IntersectionExampleScenario.node[18].nic.mac1609_4 	DroppedPacketsInMac 	0
scalar IntersectionExampleScenario.node[18].nic.mac1609_4 	TooLittleTime 	0
scalar IntersectionExampleScenario.node[18].nic.mac1609_4 	TimesIntoBackoff 	0
scalar IntersectionExampleScenario.node[18].nic.mac1609_4 	SlotsBackoff 	0
scalar IntersectionExampleScenario.node[18].nic.mac1609_4 	NumInternalContention 	0
scalar IntersectionExampleScenario.node[18].nic.mac1609_4 	totalBusyTime 	0
scalar IntersectionExampleScenario.node[18].veinsmobility 	startTime 	65.5
scalar IntersectionExampleScenario.node[18].veinsmobility 	totalTime 	43.75
scalar IntersectionExampleScenario.node[18].veinsmobility 	stopTime 	109.5
scalar IntersectionExampleScenario.node[18].veinsmobility 	minSpeed 	5.5748429298401
scalar IntersectionExampleScenario.node[18].veinsmobility 	maxSpeed 	15.375
scalar IntersectionExampleScenario.node[18].veinsmobility 	totalDistance 	551.58032043209
scalar IntersectionExampleScenario.node[18].veinsmobility 	totalCO2Emission 	132.71236796389
scalar IntersectionExampleScenario.node[13].appl 	VehicleRemoved 	0
scalar IntersectionExampleScenario.node[13].appl 	ArrivedAtDest 	1
scalar IntersectionExampleScenario.node[13].appl 	IntersectionEnterTime 	29.25
scalar IntersectionExampleScenario.node[13].appl 	IntersectionExitTime 	94.834936973697
scalar IntersectionExampleScenario.node[13].appl 	NumberOfCollisions 	0
scalar IntersectionExampleScenario.node[13].nic.phy80211p 	busyTime 	0
scalar IntersectionExampleScenario.node[13].nic.mac1609_4 	ReceivedUnicastPackets 	0
scalar IntersectionExampleScenario.node[13].nic.mac1609_4 	ReceivedBroadcasts 	0
scalar IntersectionExampleScenario.node[13].nic.mac1609_4 	SentPackets 	0
scalar IntersectionExampleScenario.node[13].nic.mac1609_4 	SNIRLostPackets 	0
scalar IntersectionExampleScenario.node[13].nic.mac1609_4 	RXTXLostPackets 	0
scalar IntersectionExampleScenario.node[13].nic.mac1609_4 	TotalLostPackets 	0
scalar IntersectionExampleScenario.node[13].nic.mac1609_4 	DroppedPacketsInMac 	0
scalar IntersectionExampleScenario.node[13].nic.mac1609_4 	TooLittleTime 	0
scalar IntersectionExampleScenario.node[13].nic.mac1609_4 	TimesIntoBackoff 	0
scalar IntersectionExampleScenario.node[13].nic.mac1609_4 	SlotsBackoff 	0
scalar IntersectionExampleScenario.node[13].nic.mac1609_4 	NumInternalContention 	0
scalar IntersectionExampleScenario.node[13].nic.mac1609_4 	totalBusyTime 	0
scalar IntersectionExampleScenario.node[13].veinsmobility 	startTime 	29.25
scalar IntersectionExampleScenario.node[13].veinsmobility 	totalTime 	81.5
scalar IntersectionExampleScenario.node[13].veinsmobility 	stopTime 	111
scalar IntersectionExampleScenario.node[13].veinsmobility 	minSpeed 	0
scalar IntersectionExampleScenario.node[13].veinsmobility 	maxSpeed 	15.330653190613
scalar IntersectionExampleScenario.node[13].veinsmobility 	totalDistance 	554.49527740479
scalar IntersectionExampleScenario.node[13].veinsmobility 	totalCO2Emission 	172.63448978293
scalar IntersectionExampleScenario.node[14].appl 	VehicleRemoved 	0
scalar IntersectionExampleScenario.node[14].appl 	ArrivedAtDest 	1
scalar IntersectionExampleScenario.node[14].appl 	IntersectionEnterTime 	30.25
scalar IntersectionExampleScenario.node[14].appl 	IntersectionExitTime 	97.065427725873
scalar IntersectionExampleScenario.node[14].appl 	NumberOfCollisions 	0
scalar IntersectionExampleScenario.node[14].nic.phy80211p 	busyTime 	0
scalar IntersectionExampleScenario.node[14].nic.mac1609_4 	ReceivedUnicastPackets 	0
scalar IntersectionExampleScenario.node[14].nic.mac1609_4 	ReceivedBroadcasts 	0
scalar IntersectionExampleScenario.node[14].nic.mac1609_4 	SentPackets 	0
scalar IntersectionExampleScenario.node[14].nic.mac1609_4 	SNIRLostPackets 	0
scalar IntersectionExampleScenario.node[14].nic.mac1609_4 	RXTXLostPackets 	0
scalar IntersectionExampleScenario.node[14].nic.mac1609_4 	TotalLostPackets 	0
scalar IntersectionExampleScenario.node[14].nic.mac1609_4 	DroppedPacketsInMac 	0
scalar IntersectionExampleScenario.node[14].nic.mac1609_4 	TooLittleTime 	0
scalar IntersectionExampleScenario.node[14].nic.mac1609_4 	TimesIntoBackoff 	0
scalar IntersectionExampleScenario.node[14].nic.mac1609_4 	SlotsBackoff 	0
scalar IntersectionExampleScenario.node[14].nic.mac1609_4 	NumInternalContention 	0
scalar IntersectionExampleScenario.node[14].nic.mac1609_4 	totalBusyTime 	0
scalar IntersectionExampleScenario.node[14].veinsmobility 	startTime 	30.25
scalar IntersectionExampleScenario.node[14].veinsmobility 	totalTime 	83.5
scalar IntersectionExampleScenario.node[14].veinsmobility 	stopTime 	114
scalar IntersectionExampleScenario.node[14].veinsmobility 	minSpeed 	0
scalar IntersectionExampleScenario.node[14].veinsmobility 	maxSpeed 	15.64999961853
scalar IntersectionExampleScenario.node[14].veinsmobility 	totalDistance 	568.97261437512
scalar IntersectionExampleScenario.node[14].veinsmobility 	totalCO2Emission 	181.85584234944
scalar IntersectionExampleScenario.node[25].appl 	VehicleRemoved 	0
scalar IntersectionExampleScenario.node[25].appl 	ArrivedAtDest 	1
scalar IntersectionExampleScenario.node[25].appl 	IntersectionEnterTime 	82.25
scalar IntersectionExampleScenario.node[25].appl 	IntersectionExitTime 	105.04558527746
scalar IntersectionExampleScenario.node[25].appl 	NumberOfCollisions 	0
scalar IntersectionExampleScenario.node[25].nic.phy80211p 	busyTime 	0
scalar IntersectionExampleScenario.node[25].nic.mac1609_4 	ReceivedUnicastPackets 	0
scalar IntersectionExampleScenario.node[25].nic.mac1609_4 	ReceivedBroadcasts 	0
scalar IntersectionExampleScenario.node[25].nic.mac1609_4 	SentPackets 	0
scalar IntersectionExampleScenario.node[25].nic.mac1609_4 	SNIRLostPackets 	0
scalar IntersectionExampleScenario.node[25].nic.mac1609_4 	RXTXLostPackets 	0
scalar IntersectionExampleScenario.node[25].nic.mac1609_4 	TotalLostPackets 	0
scalar IntersectionExampleScenario.node[25].nic.mac1609_4 	DroppedPacketsInMac 	0
scalar IntersectionExampleScenario.node[25].nic.mac1609_4 	TooLittleTime 	0
scalar IntersectionExampleScenario.node[25].nic.mac1609_4 	TimesIntoBackoff 	0
scalar IntersectionExampleScenario.node[25].nic.mac1609_4 	SlotsBackoff 	0
scalar IntersectionExampleScenario.node[25].nic.mac1609_4 	NumInternalContention 	0
scalar IntersectionExampleScenario.node[25].nic.mac1609_4 	totalBusyTime 	0
scalar IntersectionExampleScenario.node[25].veinsmobility 	startTime 	82.25
scalar IntersectionExampleScenario.node[25].veinsmobility 	totalTime 	38.75
scalar IntersectionExampleScenario.node[25].veinsmobility 	stopTime 	121.25
scalar IntersectionExampleScenario.node[25].veinsmobility 	minSpeed 	5.6500000953674
scalar IntersectionExampleScenario.node[25].veinsmobility 	maxSpeed 	16.27499961853
scalar IntersectionExampleScenario.node[25].veinsmobility 	totalDistance 	551.19855545013
scalar IntersectionExampleScenario.node[25].veinsmobility 	totalCO2Emission 	125.78112944269
scalar IntersectionExampleScenario.node[26].appl 	VehicleRemoved 	0
scalar IntersectionExampleScenario.node[26].appl 	ArrivedAtDest 	1
scalar IntersectionExampleScenario.node[26].appl 	IntersectionEnterTime 	82.5
scalar IntersectionExampleScenario.node[26].appl 	IntersectionExitTime 	105.26065977593
scalar IntersectionExampleScenario.node[26].appl 	NumberOfCollisions 	0
scalar IntersectionExampleScenario.node[26].nic.phy80211p 	busyTime 	0
scalar IntersectionExampleScenario.node[26].nic.mac1609_4 	ReceivedUnicastPackets 	0
scalar IntersectionExampleScenario.node[26].nic.mac1609_4 	ReceivedBroadcasts 	0
scalar IntersectionExampleScenario.node[26].nic.mac1609_4 	SentPackets 	0
scalar IntersectionExampleScenario.node[26].nic.mac1609_4 	SNIRLostPackets 	0
scalar IntersectionExampleScenario.node[26].nic.mac1609_4 	RXTXLostPackets 	0
scalar IntersectionExampleScenario.node[26].nic.mac1609_4 	TotalLostPackets 	0
scalar IntersectionExampleScenario.node[26].nic.mac1609_4 	DroppedPacketsInMac 	0
scalar IntersectionExampleScenario.node[26].nic.mac1609_4 	TooLittleTime 	0
scalar IntersectionExampleScenario.node[26].nic.mac1609_4 	TimesIntoBackoff 	0
scalar IntersectionExampleScenario.node[26].nic.mac1609_4 	SlotsBackoff 	0
scalar IntersectionExampleScenario.node[26].nic.mac1609_4 	NumInternalContention 	0
scalar IntersectionExampleScenario.node[26].nic.mac1609_4 	totalBusyTime 	0
scalar IntersectionExampleScenario.node[26].veinsmobility 	startTime 	82.5
scalar IntersectionExampleScenario.node[26].veinsmobility 	totalTime 	38.75
scalar IntersectionExampleScenario.node[26].veinsmobility 	stopTime 	121.5
scalar IntersectionExampleScenario.node[26].veinsmobility 	minSpeed 	5.6500000953674
scalar IntersectionExampleScenario.node[26].veinsmobility 	maxSpeed 	15.64999961853
scalar IntersectionExampleScenario.node[26].veinsmobility 	totalDistance 	552.8963394165
scalar IntersectionExampleScenario.node[26].veinsmobility 	totalCO2Emission 	117.69084027776
scalar IntersectionExampleScenario.node[28].appl 	VehicleRemoved 	0
scalar IntersectionExampleScenario.node[28].appl 	ArrivedAtDest 	1
scalar IntersectionExampleScenario.node[28].appl 	IntersectionEnterTime 	84
scalar IntersectionExampleScenario.node[28].appl 	IntersectionExitTime 	108.10087739356
scalar IntersectionExampleScenario.node[28].appl 	NumberOfCollisions 	0
scalar IntersectionExampleScenario.node[28].nic.phy80211p 	busyTime 	0
scalar IntersectionExampleScenario.node[28].nic.mac1609_4 	ReceivedUnicastPackets 	0
scalar IntersectionExampleScenario.node[28].nic.mac1609_4 	ReceivedBroadcasts 	0
scalar IntersectionExampleScenario.node[28].nic.mac1609_4 	SentPackets 	0
scalar IntersectionExampleScenario.node[28].nic.mac1609_4 	SNIRLostPackets 	0
scalar IntersectionExampleScenario.node[28].nic.mac1609_4 	RXTXLostPackets 	0
scalar IntersectionExampleScenario.node[28].nic.mac1609_4 	TotalLostPackets 	0
scalar IntersectionExampleScenario.node[28].nic.mac1609_4 	DroppedPacketsInMac 	0
scalar IntersectionExampleScenario.node[28].nic.mac1609_4 	TooLittleTime 	0
scalar IntersectionExampleScenario.node[28].nic.mac1609_4 	TimesIntoBackoff 	0
scalar IntersectionExampleScenario.node[28].nic.mac1609_4 	SlotsBackoff 	0
scalar IntersectionExampleScenario.node[28].nic.mac1609_4 	NumInternalContention 	0
scalar IntersectionExampleScenario.node[28].nic.mac1609_4 	totalBusyTime 	0
scalar IntersectionExampleScenario.node[28].veinsmobility 	startTime 	84
scalar IntersectionExampleScenario.node[28].veinsmobility 	totalTime 	39.75
scalar IntersectionExampleScenario.node[28].veinsmobility 	stopTime 	124
scalar IntersectionExampleScenario.node[28].veinsmobility 	minSpeed 	5.6500000953674
scalar IntersectionExampleScenario.node[28].veinsmobility 	maxSpeed 	15.64999961853
scalar IntersectionExampleScenario.node[28].veinsmobility 	totalDistance 	574.21157836914
scalar IntersectionExampleScenario.node[28].veinsmobility 	totalCO2Emission 	123.82905223204
scalar IntersectionExampleScenario.node[29].appl 	VehicleRemoved 	0
scalar IntersectionExampleScenario.node[29].appl 	ArrivedAtDest 	1
scalar IntersectionExampleScenario.node[29].appl 	IntersectionEnterTime 	84.25
scalar IntersectionExampleScenario.node[29].appl 	IntersectionExitTime 	108.57364845451
scalar IntersectionExampleScenario.node[29].appl 	NumberOfCollisions 	0
scalar IntersectionExampleScenario.node[29].nic.phy80211p 	busyTime 	0
scalar IntersectionExampleScenario.node[29].nic.mac1609_4 	ReceivedUnicastPackets 	0
scalar IntersectionExampleScenario.node[29].nic.mac1609_4 	ReceivedBroadcasts 	0
scalar IntersectionExampleScenario.node[29].nic.mac1609_4 	SentPackets 	0
scalar IntersectionExampleScenario.node[29].nic.mac1609_4 	SNIRLostPackets 	0
scalar IntersectionExampleScenario.node[29].nic.mac1609_4 	RXTXLostPackets 	0
scalar IntersectionExampleScenario.node[29].nic.mac1609_4 	TotalLostPackets 	0
scalar IntersectionExampleScenario.node[29].nic.mac1609_4 	DroppedPacketsInMac 	0
scalar IntersectionExampleScenario.node[29].nic.mac1609_4 	TooLittleTime 	0
scalar IntersectionExampleScenario.node[29].nic.mac1609_4 	TimesIntoBackoff 	0
scalar IntersectionExampleScenario.node[29].nic.mac1609_4 	SlotsBackoff 	0
scalar IntersectionExampleScenario.node[29].nic.mac1609_4 	NumInternalContention 	0
scalar IntersectionExampleScenario.node[29].nic.mac1609_4 	totalBusyTime 	0
scalar IntersectionExampleScenario.node[29].veinsmobility 	startTime 	84.25
scalar IntersectionExampleScenario.node[29].veinsmobility 	totalTime 	40.25
scalar IntersectionExampleScenario.node[29].veinsmobility 	stopTime 	124.75
scalar IntersectionExampleScenario.node[29].veinsmobility 	minSpeed 	5.6500000953674
scalar IntersectionExampleScenario.node[29].veinsmobility 	maxSpeed 	16
scalar IntersectionExampleScenario.node[29].veinsmobility 	totalDistance 	569.08879276478
scalar IntersectionExampleScenario.node[29].veinsmobility 	totalCO2Emission 	126.0074246723
scalar IntersectionExampleScenario.node[32].appl 	VehicleRemoved 	0
scalar IntersectionExampleScenario.node[32].appl 	ArrivedAtDest 	1
scalar IntersectionExampleScenario.node[32].appl 	IntersectionEnterTime 	87.25
scalar IntersectionExampleScenario.node[32].appl 	IntersectionExitTime 	111.76256036197
scalar IntersectionExampleScenario.node[32].appl 	NumberOfCollisions 	0
scalar IntersectionExampleScenario.node[32].nic.phy80211p 	busyTime 	0
scalar IntersectionExampleScenario.node[32].nic.mac1609_4 	ReceivedUnicastPackets 	0
scalar IntersectionExampleScenario.node[32].nic.mac1609_4 	ReceivedBroadcasts 	0
scalar IntersectionExampleScenario.node[32].nic.mac1609_4 	SentPackets 	0
scalar IntersectionExampleScenario.node[32].nic.mac1609_4 	SNIRLostPackets 	0
scalar IntersectionExampleScenario.node[32].nic.mac1609_4 	RXTXLostPackets 	0
scalar IntersectionExampleScenario.node[32].nic.mac1609_4 	TotalLostPackets 	0
scalar IntersectionExampleScenario.node[32].nic.mac1609_4 	DroppedPacketsInMac 	0
scalar IntersectionExampleScenario.node[32].nic.mac1609_4 	TooLittleTime 	0
scalar IntersectionExampleScenario.node[32].nic.mac1609_4 	TimesIntoBackoff 	0
scalar IntersectionExampleScenario.node[32].nic.mac1609_4 	SlotsBackoff 	0
scalar IntersectionExampleScenario.node[32].nic.mac1609_4 	NumInternalContention 	0
scalar IntersectionExampleScenario.node[32].nic.mac1609_4 	totalBusyTime 	0
scalar IntersectionExampleScenario.node[32].veinsmobility 	startTime 	87.25
scalar IntersectionExampleScenario.node[32].veinsmobility 	totalTime 	41
scalar IntersectionExampleScenario.node[32].veinsmobility 	stopTime 	128.5
scalar IntersectionExampleScenario.node[32].veinsmobility 	minSpeed 	5.6500000953674
scalar IntersectionExampleScenario.node[32].veinsmobility 	maxSpeed 	15.875
scalar IntersectionExampleScenario.node[32].veinsmobility 	totalDistance 	567.62587104851
scalar IntersectionExampleScenario.node[32].veinsmobility 	totalCO2Emission 	132.60467787817
scalar IntersectionExampleScenario.node[35].appl 	VehicleRemoved 	0
scalar IntersectionExampleScenario.node[35].appl 	ArrivedAtDest 	1
scalar IntersectionExampleScenario.node[35].appl 	IntersectionEnterTime 	92
scalar IntersectionExampleScenario.node[35].appl 	IntersectionExitTime 	114.78169891739
scalar IntersectionExampleScenario.node[35].appl 	NumberOfCollisions 	0
scalar IntersectionExampleScenario.node[35].nic.phy80211p 	busyTime 	0
scalar IntersectionExampleScenario.node[35].nic.mac1609_4 	ReceivedUnicastPackets 	0
scalar IntersectionExampleScenario.node[35].nic.mac1609_4 	ReceivedBroadcasts 	0
scalar IntersectionExampleScenario.node[35].nic.mac1609_4 	SentPackets 	0
scalar IntersectionExampleScenario.node[35].nic.mac1609_4 	SNIRLostPackets 	0
scalar IntersectionExampleScenario.node[35].nic.mac1609_4 	RXTXLostPackets 	0
scalar IntersectionExampleScenario.node[35].nic.mac1609_4 	TotalLostPackets 	0
scalar IntersectionExampleScenario.node[35].nic.mac1609_4 	DroppedPacketsInMac 	0
scalar IntersectionExampleScenario.node[35].nic.mac1609_4 	TooLittleTime 	0
scalar IntersectionExampleScenario.node[35].nic.mac1609_4 	TimesIntoBackoff 	0
scalar IntersectionExampleScenario.node[35].nic.mac1609_4 	SlotsBackoff 	0
scalar IntersectionExampleScenario.node[35].nic.mac1609_4 	NumInternalContention 	0
scalar IntersectionExampleScenario.node[35].nic.mac1609_4 	totalBusyTime 	0
scalar IntersectionExampleScenario.node[35].veinsmobility 	startTime 	92
scalar IntersectionExampleScenario.node[35].veinsmobility 	totalTime 	38.75
scalar IntersectionExampleScenario.node[35].veinsmobility 	stopTime 	131
scalar IntersectionExampleScenario.node[35].veinsmobility 	minSpeed 	5.6500000953674
scalar IntersectionExampleScenario.node[35].veinsmobility 	maxSpeed 	16
scalar IntersectionExampleScenario.node[35].veinsmobility 	totalDistance 	550.71808968396
scalar IntersectionExampleScenario.node[35].veinsmobility 	totalCO2Emission 	126.44111881345
scalar IntersectionExampleScenario.node[38].appl 	VehicleRemoved 	0
scalar IntersectionExampleScenario.node[38].appl 	ArrivedAtDest 	1
scalar IntersectionExampleScenario.node[38].appl 	IntersectionEnterTime 	98.5
scalar IntersectionExampleScenario.node[38].appl 	IntersectionExitTime 	122.02137443109
scalar IntersectionExampleScenario.node[38].appl 	NumberOfCollisions 	0
scalar IntersectionExampleScenario.node[38].nic.phy80211p 	busyTime 	0
scalar IntersectionExampleScenario.node[38].nic.mac1609_4 	ReceivedUnicastPackets 	0
scalar IntersectionExampleScenario.node[38].nic.mac1609_4 	ReceivedBroadcasts 	0
scalar IntersectionExampleScenario.node[38].nic.mac1609_4 	SentPackets 	0
scalar IntersectionExampleScenario.node[38].nic.mac1609_4 	SNIRLostPackets 	0
scalar IntersectionExampleScenario.node[38].nic.mac1609_4 	RXTXLostPackets 	0
scalar IntersectionExampleScenario.node[38].nic.mac1609_4 	TotalLostPackets 	0
scalar IntersectionExampleScenario.node[38].nic.mac1609_4 	DroppedPacketsInMac 	0
scalar IntersectionExampleScenario.node[38].nic.mac1609_4 	TooLittleTime 	0
scalar IntersectionExampleScenario.node[38].nic.mac1609_4 	TimesIntoBackoff 	0
scalar IntersectionExampleScenario.node[38].nic.mac1609_4 	SlotsBackoff 	0
scalar IntersectionExampleScenario.node[38].nic.mac1609_4 	NumInternalContention 	0
scalar IntersectionExampleScenario.node[38].nic.mac1609_4 	totalBusyTime 	0
scalar IntersectionExampleScenario.node[38].veinsmobility 	startTime 	98.5
scalar IntersectionExampleScenario.node[38].veinsmobility 	totalTime 	40.25
scalar IntersectionExampleScenario.node[38].veinsmobility 	stopTime 	139
scalar IntersectionExampleScenario.node[38].veinsmobility 	minSpeed 	5.6500000953674
scalar IntersectionExampleScenario.node[38].veinsmobility 	maxSpeed 	15.375
scalar IntersectionExampleScenario.node[38].veinsmobility 	totalDistance 	551.98641173244
scalar IntersectionExampleScenario.node[38].veinsmobility 	totalCO2Emission 	120.88968681036
scalar IntersectionExampleScenario.node[15].appl 	VehicleRemoved 	0
scalar IntersectionExampleScenario.node[15].appl 	ArrivedAtDest 	1
scalar IntersectionExampleScenario.node[15].appl 	IntersectionEnterTime 	52.5
scalar IntersectionExampleScenario.node[15].appl 	IntersectionExitTime 	124.581440448
scalar IntersectionExampleScenario.node[15].appl 	NumberOfCollisions 	0
scalar IntersectionExampleScenario.node[15].nic.phy80211p 	busyTime 	0
scalar IntersectionExampleScenario.node[15].nic.mac1609_4 	ReceivedUnicastPackets 	0
scalar IntersectionExampleScenario.node[15].nic.mac1609_4 	ReceivedBroadcasts 	0
scalar IntersectionExampleScenario.node[15].nic.mac1609_4 	SentPackets 	0
scalar IntersectionExampleScenario.node[15].nic.mac1609_4 	SNIRLostPackets 	0
scalar IntersectionExampleScenario.node[15].nic.mac1609_4 	RXTXLostPackets 	0
scalar IntersectionExampleScenario.node[15].nic.mac1609_4 	TotalLostPackets 	0
scalar IntersectionExampleScenario.node[15].nic.mac1609_4 	DroppedPacketsInMac 	0
scalar IntersectionExampleScenario.node[15].nic.mac1609_4 	TooLittleTime 	0
scalar IntersectionExampleScenario.node[15].nic.mac1609_4 	TimesIntoBackoff 	0
scalar IntersectionExampleScenario.node[15].nic.mac1609_4 	SlotsBackoff 	0
scalar IntersectionExampleScenario.node[15].nic.mac1609_4 	NumInternalContention 	0
scalar IntersectionExampleScenario.node[15].nic.mac1609_4 	totalBusyTime 	0
scalar IntersectionExampleScenario.node[15].veinsmobility 	startTime 	52.5
scalar IntersectionExampleScenario.node[15].veinsmobility 	totalTime 	89
scalar IntersectionExampleScenario.node[15].veinsmobility 	stopTime 	141.75
scalar IntersectionExampleScenario.node[15].veinsmobility 	minSpeed 	0
scalar IntersectionExampleScenario.node[15].veinsmobility 	maxSpeed 	15.25
scalar IntersectionExampleScenario.node[15].veinsmobility 	totalDistance 	545.0027074948
scalar IntersectionExampleScenario.node[15].veinsmobility 	totalCO2Emission 	177.83294151024
scalar IntersectionExampleScenario.node[19].appl 	VehicleRemoved 	0
scalar IntersectionExampleScenario.node[19].appl 	ArrivedAtDest 	1
scalar IntersectionExampleScenario.node[19].appl 	IntersectionEnterTime 	68.25
scalar IntersectionExampleScenario.node[19].appl 	IntersectionExitTime 	126.29235387061
scalar IntersectionExampleScenario.node[19].appl 	NumberOfCollisions 	0
scalar IntersectionExampleScenario.node[19].nic.phy80211p 	busyTime 	0
scalar IntersectionExampleScenario.node[19].nic.mac1609_4 	ReceivedUnicastPackets 	0
scalar IntersectionExampleScenario.node[19].nic.mac1609_4 	ReceivedBroadcasts 	0
scalar IntersectionExampleScenario.node[19].nic.mac1609_4 	SentPackets 	0
scalar IntersectionExampleScenario.node[19].nic.mac1609_4 	SNIRLostPackets 	0
scalar IntersectionExampleScenario.node[19].nic.mac1609_4 	RXTXLostPackets 	0
scalar IntersectionExampleScenario.node[19].nic.mac1609_4 	TotalLostPackets 	0
scalar IntersectionExampleScenario.node[19].nic.mac1609_4 	DroppedPacketsInMac 	0
scalar IntersectionExampleScenario.node[19].nic.mac1609_4 	TooLittleTime 	0
scalar IntersectionExampleScenario.node[19].nic.mac1609_4 	TimesIntoBackoff 	0
scalar IntersectionExampleScenario.node[19].nic.mac1609_4 	SlotsBackoff 	0
scalar IntersectionExampleScenario.node[19].nic.mac1609_4 	NumInternalContention 	0
scalar IntersectionExampleScenario.node[19].nic.mac1609_4 	totalBusyTime 	0
scalar IntersectionExampleScenario.node[19].veinsmobility 	startTime 	68.25
scalar IntersectionExampleScenario.node[19].veinsmobility 	totalTime 	74.25
scalar IntersectionExampleScenario.node[19].veinsmobility 	stopTime 	142.75
scalar IntersectionExampleScenario.node[19].veinsmobility 	minSpeed 	0
scalar IntersectionExampleScenario.node[19].veinsmobility 	maxSpeed 	15.64999961853
scalar IntersectionExampleScenario.node[19].veinsmobility 	totalDistance 	554.75480651855
scalar IntersectionExampleScenario.node[19].veinsmobility 	totalCO2Emission 	164.41852784257
scalar IntersectionExampleScenario.node[20].appl 	VehicleRemoved 	0
scalar IntersectionExampleScenario.node[20].appl 	ArrivedAtDest 	1
scalar IntersectionExampleScenario.node[20].appl 	IntersectionEnterTime 	76.25
scalar IntersectionExampleScenario.node[20].appl 	IntersectionExitTime 	129.05122267021
scalar IntersectionExampleScenario.node[20].appl 	NumberOfCollisions 	0
scalar IntersectionExampleScenario.node[20].nic.phy80211p 	busyTime 	0
scalar IntersectionExampleScenario.node[20].nic.mac1609_4 	ReceivedUnicastPackets 	0
scalar IntersectionExampleScenario.node[20].nic.mac1609_4 	ReceivedBroadcasts 	0
scalar IntersectionExampleScenario.node[20].nic.mac1609_4 	SentPackets 	0
scalar IntersectionExampleScenario.node[20].nic.mac1609_4 	SNIRLostPackets 	0
scalar IntersectionExampleScenario.node[20].nic.mac1609_4 	RXTXLostPackets 	0
scalar IntersectionExampleScenario.node[20].nic.mac1609_4 	TotalLostPackets 	0
scalar IntersectionExampleScenario.node[20].nic.mac1609_4 	DroppedPacketsInMac 	0
scalar IntersectionExampleScenario.node[20].nic.mac1609_4 	TooLittleTime 	0
scalar IntersectionExampleScenario.node[20].nic.mac1609_4 	TimesIntoBackoff 	0
scalar IntersectionExampleScenario.node[20].nic.mac1609_4 	SlotsBackoff 	0
scalar IntersectionExampleScenario.node[20].nic.mac1609_4 	NumInternalContention 	0
scalar IntersectionExampleScenario.node[20].nic.mac1609_4 	totalBusyTime 	0
scalar IntersectionExampleScenario.node[20].veinsmobility 	startTime 	76.25
scalar IntersectionExampleScenario.node[20].veinsmobility 	totalTime 	68.75
scalar IntersectionExampleScenario.node[20].veinsmobility 	stopTime 	145.25
scalar IntersectionExampleScenario.node[20].veinsmobility 	minSpeed 	0
scalar IntersectionExampleScenario.node[20].veinsmobility 	maxSpeed 	16
scalar IntersectionExampleScenario.node[20].veinsmobility 	totalDistance 	551.10618814517
scalar IntersectionExampleScenario.node[20].veinsmobility 	totalCO2Emission 	161.65682849535
scalar IntersectionExampleScenario.node[22].appl 	VehicleRemoved 	0
scalar IntersectionExampleScenario.node[22].appl 	ArrivedAtDest 	1
scalar IntersectionExampleScenario.node[22].appl 	IntersectionEnterTime 	79.25
scalar IntersectionExampleScenario.node[22].appl 	IntersectionExitTime 	130.75834368181
scalar IntersectionExampleScenario.node[22].appl 	NumberOfCollisions 	0
scalar IntersectionExampleScenario.node[22].nic.phy80211p 	busyTime 	0
scalar IntersectionExampleScenario.node[22].nic.mac1609_4 	ReceivedUnicastPackets 	0
scalar IntersectionExampleScenario.node[22].nic.mac1609_4 	ReceivedBroadcasts 	0
scalar IntersectionExampleScenario.node[22].nic.mac1609_4 	SentPackets 	0
scalar IntersectionExampleScenario.node[22].nic.mac1609_4 	SNIRLostPackets 	0
scalar IntersectionExampleScenario.node[22].nic.mac1609_4 	RXTXLostPackets 	0
scalar IntersectionExampleScenario.node[22].nic.mac1609_4 	TotalLostPackets 	0
scalar IntersectionExampleScenario.node[22].nic.mac1609_4 	DroppedPacketsInMac 	0
scalar IntersectionExampleScenario.node[22].nic.mac1609_4 	TooLittleTime 	0
scalar IntersectionExampleScenario.node[22].nic.mac1609_4 	TimesIntoBackoff 	0
scalar IntersectionExampleScenario.node[22].nic.mac1609_4 	SlotsBackoff 	0
scalar IntersectionExampleScenario.node[22].nic.mac1609_4 	NumInternalContention 	0
scalar IntersectionExampleScenario.node[22].nic.mac1609_4 	totalBusyTime 	0
scalar IntersectionExampleScenario.node[22].veinsmobility 	startTime 	79.25
scalar IntersectionExampleScenario.node[22].veinsmobility 	totalTime 	67
scalar IntersectionExampleScenario.node[22].veinsmobility 	stopTime 	146.5
scalar IntersectionExampleScenario.node[22].veinsmobility 	minSpeed 	0
scalar IntersectionExampleScenario.node[22].veinsmobility 	maxSpeed 	15.722233772278
scalar IntersectionExampleScenario.node[22].veinsmobility 	totalDistance 	565.05027771096
scalar IntersectionExampleScenario.node[22].veinsmobility 	totalCO2Emission 	161.8175307102
scalar IntersectionExampleScenario.node[30].appl 	VehicleRemoved 	0
scalar IntersectionExampleScenario.node[30].appl 	ArrivedAtDest 	1
scalar IntersectionExampleScenario.node[30].appl 	IntersectionEnterTime 	84.5
scalar IntersectionExampleScenario.node[30].appl 	IntersectionExitTime 	133.59936068402
scalar IntersectionExampleScenario.node[30].appl 	NumberOfCollisions 	0
scalar IntersectionExampleScenario.node[30].nic.phy80211p 	busyTime 	0
scalar IntersectionExampleScenario.node[30].nic.mac1609_4 	ReceivedUnicastPackets 	0
scalar IntersectionExampleScenario.node[30].nic.mac1609_4 	ReceivedBroadcasts 	0
scalar IntersectionExampleScenario.node[30].nic.mac1609_4 	SentPackets 	0
scalar IntersectionExampleScenario.node[30].nic.mac1609_4 	SNIRLostPackets 	0
scalar IntersectionExampleScenario.node[30].nic.mac1609_4 	RXTXLostPackets 	0
scalar IntersectionExampleScenario.node[30].nic.mac1609_4 	TotalLostPackets 	0
scalar IntersectionExampleScenario.node[30].nic.mac1609_4 	DroppedPacketsInMac 	0
scalar IntersectionExampleScenario.node[30].nic.mac1609_4 	TooLittleTime 	0
scalar IntersectionExampleScenario.node[30].nic.mac1609_4 	TimesIntoBackoff 	0
scalar IntersectionExampleScenario.node[30].nic.mac1609_4 	SlotsBackoff 	0
scalar IntersectionExampleScenario.node[30].nic.mac1609_4 	NumInternalContention 	0
scalar IntersectionExampleScenario.node[30].nic.mac1609_4 	totalBusyTime 	0
scalar IntersectionExampleScenario.node[30].veinsmobility 	startTime 	84.5
scalar IntersectionExampleScenario.node[30].veinsmobility 	totalTime 	66.75
scalar IntersectionExampleScenario.node[30].veinsmobility 	stopTime 	151.5
scalar IntersectionExampleScenario.node[30].veinsmobility 	minSpeed 	0
scalar IntersectionExampleScenario.node[30].veinsmobility 	maxSpeed 	14.625
scalar IntersectionExampleScenario.node[30].veinsmobility 	totalDistance 	522.78311675269
scalar IntersectionExampleScenario.node[30].veinsmobility 	totalCO2Emission 	150.73278525135
scalar IntersectionExampleScenario.node[27].appl 	VehicleRemoved 	0
scalar IntersectionExampleScenario.node[27].appl 	ArrivedAtDest 	1
scalar IntersectionExampleScenario.node[27].appl 	IntersectionEnterTime 	83
scalar IntersectionExampleScenario.node[27].appl 	IntersectionExitTime 	136.02838953331
scalar IntersectionExampleScenario.node[27].appl 	NumberOfCollisions 	0
scalar IntersectionExampleScenario.node[27].nic.phy80211p 	busyTime 	0
scalar IntersectionExampleScenario.node[27].nic.mac1609_4 	ReceivedUnicastPackets 	0
scalar IntersectionExampleScenario.node[27].nic.mac1609_4 	ReceivedBroadcasts 	0
scalar IntersectionExampleScenario.node[27].nic.mac1609_4 	SentPackets 	0
scalar IntersectionExampleScenario.node[27].nic.mac1609_4 	SNIRLostPackets 	0
scalar IntersectionExampleScenario.node[27].nic.mac1609_4 	RXTXLostPackets 	0
scalar IntersectionExampleScenario.node[27].nic.mac1609_4 	TotalLostPackets 	0
scalar IntersectionExampleScenario.node[27].nic.mac1609_4 	DroppedPacketsInMac 	0
scalar IntersectionExampleScenario.node[27].nic.mac1609_4 	TooLittleTime 	0
scalar IntersectionExampleScenario.node[27].nic.mac1609_4 	TimesIntoBackoff 	0
scalar IntersectionExampleScenario.node[27].nic.mac1609_4 	SlotsBackoff 	0
scalar IntersectionExampleScenario.node[27].nic.mac1609_4 	NumInternalContention 	0
scalar IntersectionExampleScenario.node[27].nic.mac1609_4 	totalBusyTime 	0
scalar IntersectionExampleScenario.node[27].veinsmobility 	startTime 	83
scalar IntersectionExampleScenario.node[27].veinsmobility 	totalTime 	69.75
scalar IntersectionExampleScenario.node[27].veinsmobility 	stopTime 	153
scalar IntersectionExampleScenario.node[27].veinsmobility 	minSpeed 	0
scalar IntersectionExampleScenario.node[27].veinsmobility 	maxSpeed 	15.320952415466
scalar IntersectionExampleScenario.node[27].veinsmobility 	totalDistance 	559.47027623696
scalar IntersectionExampleScenario.node[27].veinsmobility 	totalCO2Emission 	168.30084082664
scalar IntersectionExampleScenario.node[33].appl 	VehicleRemoved 	0
scalar IntersectionExampleScenario.node[33].appl 	ArrivedAtDest 	1
scalar IntersectionExampleScenario.node[33].appl 	IntersectionEnterTime 	89.75
scalar IntersectionExampleScenario.node[33].appl 	IntersectionExitTime 	138.2842992628
scalar IntersectionExampleScenario.node[33].appl 	NumberOfCollisions 	0
scalar IntersectionExampleScenario.node[33].nic.phy80211p 	busyTime 	0
scalar IntersectionExampleScenario.node[33].nic.mac1609_4 	ReceivedUnicastPackets 	0
scalar IntersectionExampleScenario.node[33].nic.mac1609_4 	ReceivedBroadcasts 	0
scalar IntersectionExampleScenario.node[33].nic.mac1609_4 	SentPackets 	0
scalar IntersectionExampleScenario.node[33].nic.mac1609_4 	SNIRLostPackets 	0
scalar IntersectionExampleScenario.node[33].nic.mac1609_4 	RXTXLostPackets 	0
scalar IntersectionExampleScenario.node[33].nic.mac1609_4 	TotalLostPackets 	0
scalar IntersectionExampleScenario.node[33].nic.mac1609_4 	DroppedPacketsInMac 	0
scalar IntersectionExampleScenario.node[33].nic.mac1609_4 	TooLittleTime 	0
scalar IntersectionExampleScenario.node[33].nic.mac1609_4 	TimesIntoBackoff 	0
scalar IntersectionExampleScenario.node[33].nic.mac1609_4 	SlotsBackoff 	0
scalar IntersectionExampleScenario.node[33].nic.mac1609_4 	NumInternalContention 	0
scalar IntersectionExampleScenario.node[33].nic.mac1609_4 	totalBusyTime 	0
scalar IntersectionExampleScenario.node[33].veinsmobility 	startTime 	89.75
scalar IntersectionExampleScenario.node[33].veinsmobility 	totalTime 	65.25
scalar IntersectionExampleScenario.node[33].veinsmobility 	stopTime 	155.25
scalar IntersectionExampleScenario.node[33].veinsmobility 	minSpeed 	0
scalar IntersectionExampleScenario.node[33].veinsmobility 	maxSpeed 	15.64999961853
scalar IntersectionExampleScenario.node[33].veinsmobility 	totalDistance 	546.12601366985
scalar IntersectionExampleScenario.node[33].veinsmobility 	totalCO2Emission 	158.34994237927
scalar IntersectionExampleScenario.node[34].appl 	VehicleRemoved 	0
scalar IntersectionExampleScenario.node[34].appl 	ArrivedAtDest 	1
scalar IntersectionExampleScenario.node[34].appl 	IntersectionEnterTime 	91
scalar IntersectionExampleScenario.node[34].appl 	IntersectionExitTime 	139.76119614846
scalar IntersectionExampleScenario.node[34].appl 	NumberOfCollisions 	0
scalar IntersectionExampleScenario.node[34].nic.phy80211p 	busyTime 	0
scalar IntersectionExampleScenario.node[34].nic.mac1609_4 	ReceivedUnicastPackets 	0
scalar IntersectionExampleScenario.node[34].nic.mac1609_4 	ReceivedBroadcasts 	0
scalar IntersectionExampleScenario.node[34].nic.mac1609_4 	SentPackets 	0
scalar IntersectionExampleScenario.node[34].nic.mac1609_4 	SNIRLostPackets 	0
scalar IntersectionExampleScenario.node[34].nic.mac1609_4 	RXTXLostPackets 	0
scalar IntersectionExampleScenario.node[34].nic.mac1609_4 	TotalLostPackets 	0
scalar IntersectionExampleScenario.node[34].nic.mac1609_4 	DroppedPacketsInMac 	0
scalar IntersectionExampleScenario.node[34].nic.mac1609_4 	TooLittleTime 	0
scalar IntersectionExampleScenario.node[34].nic.mac1609_4 	TimesIntoBackoff 	0
scalar IntersectionExampleScenario.node[34].nic.mac1609_4 	SlotsBackoff 	0
scalar IntersectionExampleScenario.node[34].nic.mac1609_4 	NumInternalContention 	0
scalar IntersectionExampleScenario.node[34].nic.mac1609_4 	totalBusyTime 	0
scalar IntersectionExampleScenario.node[34].veinsmobility 	startTime 	91
scalar IntersectionExampleScenario.node[34].veinsmobility 	totalTime 	64.75
scalar IntersectionExampleScenario.node[34].veinsmobility 	stopTime 	156
scalar IntersectionExampleScenario.node[34].veinsmobility 	minSpeed 	0.0634860470891
scalar IntersectionExampleScenario.node[34].veinsmobility 	maxSpeed 	15.64999961853
scalar IntersectionExampleScenario.node[34].veinsmobility 	totalDistance 	576.18113708563
scalar IntersectionExampleScenario.node[34].veinsmobility 	totalCO2Emission 	161.97608868954
scalar IntersectionExampleScenario.node[37].appl 	VehicleRemoved 	0
scalar IntersectionExampleScenario.node[37].appl 	ArrivedAtDest 	1
scalar IntersectionExampleScenario.node[37].appl 	IntersectionEnterTime 	97
scalar IntersectionExampleScenario.node[37].appl 	IntersectionExitTime 	142.00120700384
scalar IntersectionExampleScenario.node[37].appl 	NumberOfCollisions 	0
scalar IntersectionExampleScenario.node[37].nic.phy80211p 	busyTime 	0
scalar IntersectionExampleScenario.node[37].nic.mac1609_4 	ReceivedUnicastPackets 	0
scalar IntersectionExampleScenario.node[37].nic.mac1609_4 	ReceivedBroadcasts 	0
scalar IntersectionExampleScenario.node[37].nic.mac1609_4 	SentPackets 	0
scalar IntersectionExampleScenario.node[37].nic.mac1609_4 	SNIRLostPackets 	0
scalar IntersectionExampleScenario.node[37].nic.mac1609_4 	RXTXLostPackets 	0
scalar IntersectionExampleScenario.node[37].nic.mac1609_4 	TotalLostPackets 	0
scalar IntersectionExampleScenario.node[37].nic.mac1609_4 	DroppedPacketsInMac 	0
scalar IntersectionExampleScenario.node[37].nic.mac1609_4 	TooLittleTime 	0
scalar IntersectionExampleScenario.node[37].nic.mac1609_4 	TimesIntoBackoff 	0
scalar IntersectionExampleScenario.node[37].nic.mac1609_4 	SlotsBackoff 	0
scalar IntersectionExampleScenario.node[37].nic.mac1609_4 	NumInternalContention 	0
scalar IntersectionExampleScenario.node[37].nic.mac1609_4 	totalBusyTime 	0
scalar IntersectionExampleScenario.node[37].veinsmobility 	startTime 	97
scalar IntersectionExampleScenario.node[37].veinsmobility 	totalTime 	60.75
scalar IntersectionExampleScenario.node[37].veinsmobility 	stopTime 	158
scalar IntersectionExampleScenario.node[37].veinsmobility 	minSpeed 	0
scalar IntersectionExampleScenario.node[37].veinsmobility 	maxSpeed 	16.356737136841
scalar IntersectionExampleScenario.node[37].veinsmobility 	totalDistance 	519.78507876961
scalar IntersectionExampleScenario.node[37].veinsmobility 	totalCO2Emission 	161.83921208216
scalar IntersectionExampleScenario.node[36].appl 	VehicleRemoved 	0
scalar IntersectionExampleScenario.node[36].appl 	ArrivedAtDest 	1
scalar IntersectionExampleScenario.node[36].appl 	IntersectionEnterTime 	95.25
scalar IntersectionExampleScenario.node[36].appl 	IntersectionExitTime 	144.37198093781
scalar IntersectionExampleScenario.node[36].appl 	NumberOfCollisions 	0
scalar IntersectionExampleScenario.node[36].nic.phy80211p 	busyTime 	0
scalar IntersectionExampleScenario.node[36].nic.mac1609_4 	ReceivedUnicastPackets 	0
scalar IntersectionExampleScenario.node[36].nic.mac1609_4 	ReceivedBroadcasts 	0
scalar IntersectionExampleScenario.node[36].nic.mac1609_4 	SentPackets 	0
scalar IntersectionExampleScenario.node[36].nic.mac1609_4 	SNIRLostPackets 	0
scalar IntersectionExampleScenario.node[36].nic.mac1609_4 	RXTXLostPackets 	0
scalar IntersectionExampleScenario.node[36].nic.mac1609_4 	TotalLostPackets 	0
scalar IntersectionExampleScenario.node[36].nic.mac1609_4 	DroppedPacketsInMac 	0
scalar IntersectionExampleScenario.node[36].nic.mac1609_4 	TooLittleTime 	0
scalar IntersectionExampleScenario.node[36].nic.mac1609_4 	TimesIntoBackoff 	0
scalar IntersectionExampleScenario.node[36].nic.mac1609_4 	SlotsBackoff 	0
scalar IntersectionExampleScenario.node[36].nic.mac1609_4 	NumInternalContention 	0
scalar IntersectionExampleScenario.node[36].nic.mac1609_4 	totalBusyTime 	0
scalar IntersectionExampleScenario.node[36].veinsmobility 	startTime 	95.25
scalar IntersectionExampleScenario.node[36].veinsmobility 	totalTime 	65.5
scalar IntersectionExampleScenario.node[36].veinsmobility 	stopTime 	161
scalar IntersectionExampleScenario.node[36].veinsmobility 	minSpeed 	0
scalar IntersectionExampleScenario.node[36].veinsmobility 	maxSpeed 	15.375
scalar IntersectionExampleScenario.node[36].veinsmobility 	totalDistance 	564.71623328399
scalar IntersectionExampleScenario.node[36].veinsmobility 	totalCO2Emission 	164.9130074222
scalar IntersectionExampleScenario.node[41].appl 	VehicleRemoved 	0
scalar IntersectionExampleScenario.node[41].appl 	ArrivedAtDest 	1
scalar IntersectionExampleScenario.node[41].appl 	IntersectionEnterTime 	103.25
scalar IntersectionExampleScenario.node[41].appl 	IntersectionExitTime 	146.01331663772
scalar IntersectionExampleScenario.node[41].appl 	NumberOfCollisions 	0
scalar IntersectionExampleScenario.node[41].nic.phy80211p 	busyTime 	0
scalar IntersectionExampleScenario.node[41].nic.mac1609_4 	ReceivedUnicastPackets 	0
scalar IntersectionExampleScenario.node[41].nic.mac1609_4 	ReceivedBroadcasts 	0
scalar IntersectionExampleScenario.node[41].nic.mac1609_4 	SentPackets 	0
scalar IntersectionExampleScenario.node[41].nic.mac1609_4 	SNIRLostPackets 	0
scalar IntersectionExampleScenario.node[41].nic.mac1609_4 	RXTXLostPackets 	0
scalar IntersectionExampleScenario.node[41].nic.mac1609_4 	TotalLostPackets 	0
scalar IntersectionExampleScenario.node[41].nic.mac1609_4 	DroppedPacketsInMac 	0
scalar IntersectionExampleScenario.node[41].nic.mac1609_4 	TooLittleTime 	0
scalar IntersectionExampleScenario.node[41].nic.mac1609_4 	TimesIntoBackoff 	0
scalar IntersectionExampleScenario.node[41].nic.mac1609_4 	SlotsBackoff 	0
scalar IntersectionExampleScenario.node[41].nic.mac1609_4 	NumInternalContention 	0
scalar IntersectionExampleScenario.node[41].nic.mac1609_4 	totalBusyTime 	0
scalar IntersectionExampleScenario.node[41].veinsmobility 	startTime 	103.25
scalar IntersectionExampleScenario.node[41].veinsmobility 	totalTime 	59.25
scalar IntersectionExampleScenario.node[41].veinsmobility 	stopTime 	162.75
scalar IntersectionExampleScenario.node[41].veinsmobility 	minSpeed 	0
scalar IntersectionExampleScenario.node[41].veinsmobility 	maxSpeed 	15.875
scalar IntersectionExampleScenario.node[41].veinsmobility 	totalDistance 	545.94077475442
scalar IntersectionExampleScenario.node[41].veinsmobility 	totalCO2Emission 	158.68976596715
scalar IntersectionExampleScenario.node[45].appl 	VehicleRemoved 	0
scalar IntersectionExampleScenario.node[45].appl 	ArrivedAtDest 	1
scalar IntersectionExampleScenario.node[45].appl 	IntersectionEnterTime 	106.75
scalar IntersectionExampleScenario.node[45].appl 	IntersectionExitTime 	148.11310378709
scalar IntersectionExampleScenario.node[45].appl 	NumberOfCollisions 	0
scalar IntersectionExampleScenario.node[45].nic.phy80211p 	busyTime 	0
scalar IntersectionExampleScenario.node[45].nic.mac1609_4 	ReceivedUnicastPackets 	0
scalar IntersectionExampleScenario.node[45].nic.mac1609_4 	ReceivedBroadcasts 	0
scalar IntersectionExampleScenario.node[45].nic.mac1609_4 	SentPackets 	0
scalar IntersectionExampleScenario.node[45].nic.mac1609_4 	SNIRLostPackets 	0
scalar IntersectionExampleScenario.node[45].nic.mac1609_4 	RXTXLostPackets 	0
scalar IntersectionExampleScenario.node[45].nic.mac1609_4 	TotalLostPackets 	0
scalar IntersectionExampleScenario.node[45].nic.mac1609_4 	DroppedPacketsInMac 	0
scalar IntersectionExampleScenario.node[45].nic.mac1609_4 	TooLittleTime 	0
scalar IntersectionExampleScenario.node[45].nic.mac1609_4 	TimesIntoBackoff 	0
scalar IntersectionExampleScenario.node[45].nic.mac1609_4 	SlotsBackoff 	0
scalar IntersectionExampleScenario.node[45].nic.mac1609_4 	NumInternalContention 	0
scalar IntersectionExampleScenario.node[45].nic.mac1609_4 	totalBusyTime 	0
scalar IntersectionExampleScenario.node[45].veinsmobility 	startTime 	106.75
scalar IntersectionExampleScenario.node[45].veinsmobility 	totalTime 	57.5
scalar IntersectionExampleScenario.node[45].veinsmobility 	stopTime 	164.5
scalar IntersectionExampleScenario.node[45].veinsmobility 	minSpeed 	1.7887668609619
scalar IntersectionExampleScenario.node[45].veinsmobility 	maxSpeed 	15.489485740662
scalar IntersectionExampleScenario.node[45].veinsmobility 	totalDistance 	559.57692085303
scalar IntersectionExampleScenario.node[45].veinsmobility 	totalCO2Emission 	155.52607084451
scalar IntersectionExampleScenario.node[48].appl 	VehicleRemoved 	0
scalar IntersectionExampleScenario.node[48].appl 	ArrivedAtDest 	1
scalar IntersectionExampleScenario.node[48].appl 	IntersectionEnterTime 	108.75
scalar IntersectionExampleScenario.node[48].appl 	IntersectionExitTime 	149.84416098066
scalar IntersectionExampleScenario.node[48].appl 	NumberOfCollisions 	0
scalar IntersectionExampleScenario.node[48].nic.phy80211p 	busyTime 	0
scalar IntersectionExampleScenario.node[48].nic.mac1609_4 	ReceivedUnicastPackets 	0
scalar IntersectionExampleScenario.node[48].nic.mac1609_4 	ReceivedBroadcasts 	0
scalar IntersectionExampleScenario.node[48].nic.mac1609_4 	SentPackets 	0
scalar IntersectionExampleScenario.node[48].nic.mac1609_4 	SNIRLostPackets 	0
scalar IntersectionExampleScenario.node[48].nic.mac1609_4 	RXTXLostPackets 	0
scalar IntersectionExampleScenario.node[48].nic.mac1609_4 	TotalLostPackets 	0
scalar IntersectionExampleScenario.node[48].nic.mac1609_4 	DroppedPacketsInMac 	0
scalar IntersectionExampleScenario.node[48].nic.mac1609_4 	TooLittleTime 	0
scalar IntersectionExampleScenario.node[48].nic.mac1609_4 	TimesIntoBackoff 	0
scalar IntersectionExampleScenario.node[48].nic.mac1609_4 	SlotsBackoff 	0
scalar IntersectionExampleScenario.node[48].nic.mac1609_4 	NumInternalContention 	0
scalar IntersectionExampleScenario.node[48].nic.mac1609_4 	totalBusyTime 	0
scalar IntersectionExampleScenario.node[48].veinsmobility 	startTime 	108.75
scalar IntersectionExampleScenario.node[48].veinsmobility 	totalTime 	57
scalar IntersectionExampleScenario.node[48].veinsmobility 	stopTime 	166
scalar IntersectionExampleScenario.node[48].veinsmobility 	minSpeed 	1.8391690254211
scalar IntersectionExampleScenario.node[48].veinsmobility 	maxSpeed 	15.5
scalar IntersectionExampleScenario.node[48].veinsmobility 	totalDistance 	577.55673217773
scalar IntersectionExampleScenario.node[48].veinsmobility 	totalCO2Emission 	154.16159994159
scalar IntersectionExampleScenario.node[51].appl 	VehicleRemoved 	0
scalar IntersectionExampleScenario.node[51].appl 	ArrivedAtDest 	1
scalar IntersectionExampleScenario.node[51].appl 	IntersectionEnterTime 	111
scalar IntersectionExampleScenario.node[51].appl 	IntersectionExitTime 	151.53807913387
scalar IntersectionExampleScenario.node[51].appl 	NumberOfCollisions 	0
scalar IntersectionExampleScenario.node[51].nic.phy80211p 	busyTime 	0
scalar IntersectionExampleScenario.node[51].nic.mac1609_4 	ReceivedUnicastPackets 	0
scalar IntersectionExampleScenario.node[51].nic.mac1609_4 	ReceivedBroadcasts 	0
scalar IntersectionExampleScenario.node[51].nic.mac1609_4 	SentPackets 	0
scalar IntersectionExampleScenario.node[51].nic.mac1609_4 	SNIRLostPackets 	0
scalar IntersectionExampleScenario.node[51].nic.mac1609_4 	RXTXLostPackets 	0
scalar IntersectionExampleScenario.node[51].nic.mac1609_4 	TotalLostPackets 	0
scalar IntersectionExampleScenario.node[51].nic.mac1609_4 	DroppedPacketsInMac 	0
scalar IntersectionExampleScenario.node[51].nic.mac1609_4 	TooLittleTime 	0
scalar IntersectionExampleScenario.node[51].nic.mac1609_4 	TimesIntoBackoff 	0
scalar IntersectionExampleScenario.node[51].nic.mac1609_4 	SlotsBackoff 	0
scalar IntersectionExampleScenario.node[51].nic.mac1609_4 	NumInternalContention 	0
scalar IntersectionExampleScenario.node[51].nic.mac1609_4 	totalBusyTime 	0
scalar IntersectionExampleScenario.node[51].veinsmobility 	startTime 	111
scalar IntersectionExampleScenario.node[51].veinsmobility 	totalTime 	56
scalar IntersectionExampleScenario.node[51].veinsmobility 	stopTime 	167.25
scalar IntersectionExampleScenario.node[51].veinsmobility 	minSpeed 	1.815167427063
scalar IntersectionExampleScenario.node[51].veinsmobility 	maxSpeed 	15.916979789734
scalar IntersectionExampleScenario.node[51].veinsmobility 	totalDistance 	581.36434936523
scalar IntersectionExampleScenario.node[51].veinsmobility 	totalCO2Emission 	153.44819111319
scalar IntersectionExampleScenario.node[24].appl 	VehicleRemoved 	0
scalar IntersectionExampleScenario.node[24].appl 	ArrivedAtDest 	1
scalar IntersectionExampleScenario.node[24].appl 	IntersectionEnterTime 	79.75
scalar IntersectionExampleScenario.node[24].appl 	IntersectionExitTime 	154.26296366169
scalar IntersectionExampleScenario.node[24].appl 	NumberOfCollisions 	0
scalar IntersectionExampleScenario.node[24].nic.phy80211p 	busyTime 	0
scalar IntersectionExampleScenario.node[24].nic.mac1609_4 	ReceivedUnicastPackets 	0
scalar IntersectionExampleScenario.node[24].nic.mac1609_4 	ReceivedBroadcasts 	0
scalar IntersectionExampleScenario.node[24].nic.mac1609_4 	SentPackets 	0
scalar IntersectionExampleScenario.node[24].nic.mac1609_4 	SNIRLostPackets 	0
scalar IntersectionExampleScenario.node[24].nic.mac1609_4 	RXTXLostPackets 	0
scalar IntersectionExampleScenario.node[24].nic.mac1609_4 	TotalLostPackets 	0
scalar IntersectionExampleScenario.node[24].nic.mac1609_4 	DroppedPacketsInMac 	0
scalar IntersectionExampleScenario.node[24].nic.mac1609_4 	TooLittleTime 	0
scalar IntersectionExampleScenario.node[24].nic.mac1609_4 	TimesIntoBackoff 	0
scalar IntersectionExampleScenario.node[24].nic.mac1609_4 	SlotsBackoff 	0
[...]
scalar IntersectionExampleScenario.node[645].veinsmobility 	totalDistance 	330.85461701493
scalar IntersectionExampleScenario.node[645].veinsmobility 	totalCO2Emission 	87.9150489111
scalar IntersectionExampleScenario.node[646].appl 	VehicleRemoved 	0
scalar IntersectionExampleScenario.node[646].appl 	ArrivedAtDest 	0
scalar IntersectionExampleScenario.node[646].appl 	IntersectionEnterTime 	1772.25
scalar IntersectionExampleScenario.node[646].appl 	IntersectionExitTime 	-1
scalar IntersectionExampleScenario.node[646].appl 	NumberOfCollisions 	0
scalar IntersectionExampleScenario.node[646].nic.phy80211p 	busyTime 	0
scalar IntersectionExampleScenario.node[646].nic.mac1609_4 	ReceivedUnicastPackets 	0
scalar IntersectionExampleScenario.node[646].nic.mac1609_4 	ReceivedBroadcasts 	0
scalar IntersectionExampleScenario.node[646].nic.mac1609_4 	SentPackets 	0
scalar IntersectionExampleScenario.node[646].nic.mac1609_4 	SNIRLostPackets 	0
scalar IntersectionExampleScenario.node[646].nic.mac1609_4 	RXTXLostPackets 	0
scalar IntersectionExampleScenario.node[646].nic.mac1609_4 	TotalLostPackets 	0
scalar IntersectionExampleScenario.node[646].nic.mac1609_4 	DroppedPacketsInMac 	0
scalar IntersectionExampleScenario.node[646].nic.mac1609_4 	TooLittleTime 	0
scalar IntersectionExampleScenario.node[646].nic.mac1609_4 	TimesIntoBackoff 	0
scalar IntersectionExampleScenario.node[646].nic.mac1609_4 	SlotsBackoff 	0
scalar IntersectionExampleScenario.node[646].nic.mac1609_4 	NumInternalContention 	0
scalar IntersectionExampleScenario.node[646].nic.mac1609_4 	totalBusyTime 	0
scalar IntersectionExampleScenario.node[646].veinsmobility 	startTime 	1772.25
scalar IntersectionExampleScenario.node[646].veinsmobility 	totalTime 	27.75
scalar IntersectionExampleScenario.node[646].veinsmobility 	stopTime 	1800
scalar IntersectionExampleScenario.node[646].veinsmobility 	minSpeed 	0
scalar IntersectionExampleScenario.node[646].veinsmobility 	maxSpeed 	15.64999961853
scalar IntersectionExampleScenario.node[646].veinsmobility 	totalDistance 	287.42190551758
scalar IntersectionExampleScenario.node[646].veinsmobility 	totalCO2Emission 	72.457040189258
scalar IntersectionExampleScenario.node[647].appl 	VehicleRemoved 	0
scalar IntersectionExampleScenario.node[647].appl 	ArrivedAtDest 	0
scalar IntersectionExampleScenario.node[647].appl 	IntersectionEnterTime 	1773
scalar IntersectionExampleScenario.node[647].appl 	IntersectionExitTime 	-1
scalar IntersectionExampleScenario.node[647].appl 	NumberOfCollisions 	0
scalar IntersectionExampleScenario.node[647].nic.phy80211p 	busyTime 	0
scalar IntersectionExampleScenario.node[647].nic.mac1609_4 	ReceivedUnicastPackets 	0
scalar IntersectionExampleScenario.node[647].nic.mac1609_4 	ReceivedBroadcasts 	0
scalar IntersectionExampleScenario.node[647].nic.mac1609_4 	SentPackets 	0
scalar IntersectionExampleScenario.node[647].nic.mac1609_4 	SNIRLostPackets 	0
scalar IntersectionExampleScenario.node[647].nic.mac1609_4 	RXTXLostPackets 	0
scalar IntersectionExampleScenario.node[647].nic.mac1609_4 	TotalLostPackets 	0
scalar IntersectionExampleScenario.node[647].nic.mac1609_4 	DroppedPacketsInMac 	0
scalar IntersectionExampleScenario.node[647].nic.mac1609_4 	TooLittleTime 	0
scalar IntersectionExampleScenario.node[647].nic.mac1609_4 	TimesIntoBackoff 	0
scalar IntersectionExampleScenario.node[647].nic.mac1609_4 	SlotsBackoff 	0
scalar IntersectionExampleScenario.node[647].nic.mac1609_4 	NumInternalContention 	0
scalar IntersectionExampleScenario.node[647].nic.mac1609_4 	totalBusyTime 	0
scalar IntersectionExampleScenario.node[647].veinsmobility 	startTime 	1773
scalar IntersectionExampleScenario.node[647].veinsmobility 	totalTime 	27
scalar IntersectionExampleScenario.node[647].veinsmobility 	stopTime 	1800
scalar IntersectionExampleScenario.node[647].veinsmobility 	minSpeed 	1.322630405426
scalar IntersectionExampleScenario.node[647].veinsmobility 	maxSpeed 	15.02499961853
scalar IntersectionExampleScenario.node[647].veinsmobility 	totalDistance 	276.94058227539
scalar IntersectionExampleScenario.node[647].veinsmobility 	totalCO2Emission 	65.114060936532
scalar IntersectionExampleScenario.node[648].appl 	VehicleRemoved 	0
scalar IntersectionExampleScenario.node[648].appl 	ArrivedAtDest 	0
scalar IntersectionExampleScenario.node[648].appl 	IntersectionEnterTime 	1773.75
scalar IntersectionExampleScenario.node[648].appl 	IntersectionExitTime 	-1
scalar IntersectionExampleScenario.node[648].appl 	NumberOfCollisions 	0
scalar IntersectionExampleScenario.node[648].nic.phy80211p 	busyTime 	0
scalar IntersectionExampleScenario.node[648].nic.mac1609_4 	ReceivedUnicastPackets 	0
scalar IntersectionExampleScenario.node[648].nic.mac1609_4 	ReceivedBroadcasts 	0
scalar IntersectionExampleScenario.node[648].nic.mac1609_4 	SentPackets 	0
scalar IntersectionExampleScenario.node[648].nic.mac1609_4 	SNIRLostPackets 	0
scalar IntersectionExampleScenario.node[648].nic.mac1609_4 	RXTXLostPackets 	0
scalar IntersectionExampleScenario.node[648].nic.mac1609_4 	TotalLostPackets 	0
scalar IntersectionExampleScenario.node[648].nic.mac1609_4 	DroppedPacketsInMac 	0
scalar IntersectionExampleScenario.node[648].nic.mac1609_4 	TooLittleTime 	0
scalar IntersectionExampleScenario.node[648].nic.mac1609_4 	TimesIntoBackoff 	0
scalar IntersectionExampleScenario.node[648].nic.mac1609_4 	SlotsBackoff 	0
scalar IntersectionExampleScenario.node[648].nic.mac1609_4 	NumInternalContention 	0
scalar IntersectionExampleScenario.node[648].nic.mac1609_4 	totalBusyTime 	0
scalar IntersectionExampleScenario.node[648].veinsmobility 	startTime 	1773.75
scalar IntersectionExampleScenario.node[648].veinsmobility 	totalTime 	26.25
scalar IntersectionExampleScenario.node[648].veinsmobility 	stopTime 	1800
scalar IntersectionExampleScenario.node[648].veinsmobility 	minSpeed 	0
scalar IntersectionExampleScenario.node[648].veinsmobility 	maxSpeed 	15.722131729126
scalar IntersectionExampleScenario.node[648].veinsmobility 	totalDistance 	289.8757019043
scalar IntersectionExampleScenario.node[648].veinsmobility 	totalCO2Emission 	69.786253956045
scalar IntersectionExampleScenario.node[649].appl 	VehicleRemoved 	0
scalar IntersectionExampleScenario.node[649].appl 	ArrivedAtDest 	0
scalar IntersectionExampleScenario.node[649].appl 	IntersectionEnterTime 	1778.25
scalar IntersectionExampleScenario.node[649].appl 	IntersectionExitTime 	-1
scalar IntersectionExampleScenario.node[649].appl 	NumberOfCollisions 	0
scalar IntersectionExampleScenario.node[649].nic.phy80211p 	busyTime 	0
scalar IntersectionExampleScenario.node[649].nic.mac1609_4 	ReceivedUnicastPackets 	0
scalar IntersectionExampleScenario.node[649].nic.mac1609_4 	ReceivedBroadcasts 	0
scalar IntersectionExampleScenario.node[649].nic.mac1609_4 	SentPackets 	0
scalar IntersectionExampleScenario.node[649].nic.mac1609_4 	SNIRLostPackets 	0
scalar IntersectionExampleScenario.node[649].nic.mac1609_4 	RXTXLostPackets 	0
scalar IntersectionExampleScenario.node[649].nic.mac1609_4 	TotalLostPackets 	0
scalar IntersectionExampleScenario.node[649].nic.mac1609_4 	DroppedPacketsInMac 	0
scalar IntersectionExampleScenario.node[649].nic.mac1609_4 	TooLittleTime 	0
scalar IntersectionExampleScenario.node[649].nic.mac1609_4 	TimesIntoBackoff 	0
scalar IntersectionExampleScenario.node[649].nic.mac1609_4 	SlotsBackoff 	0
scalar IntersectionExampleScenario.node[649].nic.mac1609_4 	NumInternalContention 	0
scalar IntersectionExampleScenario.node[649].nic.mac1609_4 	totalBusyTime 	0
scalar IntersectionExampleScenario.node[649].veinsmobility 	startTime 	1778.25
scalar IntersectionExampleScenario.node[649].veinsmobility 	totalTime 	21.75
scalar IntersectionExampleScenario.node[649].veinsmobility 	stopTime 	1800
scalar IntersectionExampleScenario.node[649].veinsmobility 	minSpeed 	3.6246104240417
scalar IntersectionExampleScenario.node[649].veinsmobility 	maxSpeed 	15.796620368958
scalar IntersectionExampleScenario.node[649].veinsmobility 	totalDistance 	269.20217895508
scalar IntersectionExampleScenario.node[649].veinsmobility 	totalCO2Emission 	62.950736799672
scalar IntersectionExampleScenario.node[650].appl 	VehicleRemoved 	0
scalar IntersectionExampleScenario.node[650].appl 	ArrivedAtDest 	0
scalar IntersectionExampleScenario.node[650].appl 	IntersectionEnterTime 	1781.75
scalar IntersectionExampleScenario.node[650].appl 	IntersectionExitTime 	-1
scalar IntersectionExampleScenario.node[650].appl 	NumberOfCollisions 	0
scalar IntersectionExampleScenario.node[650].nic.phy80211p 	busyTime 	0
scalar IntersectionExampleScenario.node[650].nic.mac1609_4 	ReceivedUnicastPackets 	0
scalar IntersectionExampleScenario.node[650].nic.mac1609_4 	ReceivedBroadcasts 	0
scalar IntersectionExampleScenario.node[650].nic.mac1609_4 	SentPackets 	0
scalar IntersectionExampleScenario.node[650].nic.mac1609_4 	SNIRLostPackets 	0
scalar IntersectionExampleScenario.node[650].nic.mac1609_4 	RXTXLostPackets 	0
scalar IntersectionExampleScenario.node[650].nic.mac1609_4 	TotalLostPackets 	0
scalar IntersectionExampleScenario.node[650].nic.mac1609_4 	DroppedPacketsInMac 	0
scalar IntersectionExampleScenario.node[650].nic.mac1609_4 	TooLittleTime 	0
scalar IntersectionExampleScenario.node[650].nic.mac1609_4 	TimesIntoBackoff 	0
scalar IntersectionExampleScenario.node[650].nic.mac1609_4 	SlotsBackoff 	0
scalar IntersectionExampleScenario.node[650].nic.mac1609_4 	NumInternalContention 	0
scalar IntersectionExampleScenario.node[650].nic.mac1609_4 	totalBusyTime 	0
scalar IntersectionExampleScenario.node[650].veinsmobility 	startTime 	1781.75
scalar IntersectionExampleScenario.node[650].veinsmobility 	totalTime 	18.25
scalar IntersectionExampleScenario.node[650].veinsmobility 	stopTime 	1800
scalar IntersectionExampleScenario.node[650].veinsmobility 	minSpeed 	5.6500000953674
scalar IntersectionExampleScenario.node[650].veinsmobility 	maxSpeed 	15.02499961853
scalar IntersectionExampleScenario.node[650].veinsmobility 	totalDistance 	232.0408706665
scalar IntersectionExampleScenario.node[650].veinsmobility 	totalCO2Emission 	57.678898977011
scalar IntersectionExampleScenario.node[651].appl 	VehicleRemoved 	0
scalar IntersectionExampleScenario.node[651].appl 	ArrivedAtDest 	0
scalar IntersectionExampleScenario.node[651].appl 	IntersectionEnterTime 	1784.5
scalar IntersectionExampleScenario.node[651].appl 	IntersectionExitTime 	-1
scalar IntersectionExampleScenario.node[651].appl 	NumberOfCollisions 	0
scalar IntersectionExampleScenario.node[651].nic.phy80211p 	busyTime 	0
scalar IntersectionExampleScenario.node[651].nic.mac1609_4 	ReceivedUnicastPackets 	0
scalar IntersectionExampleScenario.node[651].nic.mac1609_4 	ReceivedBroadcasts 	0
scalar IntersectionExampleScenario.node[651].nic.mac1609_4 	SentPackets 	0
scalar IntersectionExampleScenario.node[651].nic.mac1609_4 	SNIRLostPackets 	0
scalar IntersectionExampleScenario.node[651].nic.mac1609_4 	RXTXLostPackets 	0
scalar IntersectionExampleScenario.node[651].nic.mac1609_4 	TotalLostPackets 	0
scalar IntersectionExampleScenario.node[651].nic.mac1609_4 	DroppedPacketsInMac 	0
scalar IntersectionExampleScenario.node[651].nic.mac1609_4 	TooLittleTime 	0
scalar IntersectionExampleScenario.node[651].nic.mac1609_4 	TimesIntoBackoff 	0
scalar IntersectionExampleScenario.node[651].nic.mac1609_4 	SlotsBackoff 	0
scalar IntersectionExampleScenario.node[651].nic.mac1609_4 	NumInternalContention 	0
scalar IntersectionExampleScenario.node[651].nic.mac1609_4 	totalBusyTime 	0
scalar IntersectionExampleScenario.node[651].veinsmobility 	startTime 	1784.5
scalar IntersectionExampleScenario.node[651].veinsmobility 	totalTime 	15.5
scalar IntersectionExampleScenario.node[651].veinsmobility 	stopTime 	1800
scalar IntersectionExampleScenario.node[651].veinsmobility 	minSpeed 	5.6500000953674
scalar IntersectionExampleScenario.node[651].veinsmobility 	maxSpeed 	15.383676528931
scalar IntersectionExampleScenario.node[651].veinsmobility 	totalDistance 	212.97204589844
scalar IntersectionExampleScenario.node[651].veinsmobility 	totalCO2Emission 	54.583065102464
scalar IntersectionExampleScenario.node[652].appl 	VehicleRemoved 	0
scalar IntersectionExampleScenario.node[652].appl 	ArrivedAtDest 	0
scalar IntersectionExampleScenario.node[652].appl 	IntersectionEnterTime 	1786.25
scalar IntersectionExampleScenario.node[652].appl 	IntersectionExitTime 	-1
scalar IntersectionExampleScenario.node[652].appl 	NumberOfCollisions 	0
scalar IntersectionExampleScenario.node[652].nic.phy80211p 	busyTime 	0
scalar IntersectionExampleScenario.node[652].nic.mac1609_4 	ReceivedUnicastPackets 	0
scalar IntersectionExampleScenario.node[652].nic.mac1609_4 	ReceivedBroadcasts 	0
scalar IntersectionExampleScenario.node[652].nic.mac1609_4 	SentPackets 	0
scalar IntersectionExampleScenario.node[652].nic.mac1609_4 	SNIRLostPackets 	0
scalar IntersectionExampleScenario.node[652].nic.mac1609_4 	RXTXLostPackets 	0
scalar IntersectionExampleScenario.node[652].nic.mac1609_4 	TotalLostPackets 	0
scalar IntersectionExampleScenario.node[652].nic.mac1609_4 	DroppedPacketsInMac 	0
scalar IntersectionExampleScenario.node[652].nic.mac1609_4 	TooLittleTime 	0
scalar IntersectionExampleScenario.node[652].nic.mac1609_4 	TimesIntoBackoff 	0
scalar IntersectionExampleScenario.node[652].nic.mac1609_4 	SlotsBackoff 	0
scalar IntersectionExampleScenario.node[652].nic.mac1609_4 	NumInternalContention 	0
scalar IntersectionExampleScenario.node[652].nic.mac1609_4 	totalBusyTime 	0
scalar IntersectionExampleScenario.node[652].veinsmobility 	startTime 	1786.25
scalar IntersectionExampleScenario.node[652].veinsmobility 	totalTime 	13.75
scalar IntersectionExampleScenario.node[652].veinsmobility 	stopTime 	1800
scalar IntersectionExampleScenario.node[652].veinsmobility 	minSpeed 	5.6500000953674
scalar IntersectionExampleScenario.node[652].veinsmobility 	maxSpeed 	16.27499961853
scalar IntersectionExampleScenario.node[652].veinsmobility 	totalDistance 	191.1904296875
scalar IntersectionExampleScenario.node[652].veinsmobility 	totalCO2Emission 	56.295540292002
scalar IntersectionExampleScenario.node[653].appl 	VehicleRemoved 	0
scalar IntersectionExampleScenario.node[653].appl 	ArrivedAtDest 	0
scalar IntersectionExampleScenario.node[653].appl 	IntersectionEnterTime 	1792.5
scalar IntersectionExampleScenario.node[653].appl 	IntersectionExitTime 	-1
scalar IntersectionExampleScenario.node[653].appl 	NumberOfCollisions 	0
scalar IntersectionExampleScenario.node[653].nic.phy80211p 	busyTime 	0
scalar IntersectionExampleScenario.node[653].nic.mac1609_4 	ReceivedUnicastPackets 	0
scalar IntersectionExampleScenario.node[653].nic.mac1609_4 	ReceivedBroadcasts 	0
scalar IntersectionExampleScenario.node[653].nic.mac1609_4 	SentPackets 	0
scalar IntersectionExampleScenario.node[653].nic.mac1609_4 	SNIRLostPackets 	0
scalar IntersectionExampleScenario.node[653].nic.mac1609_4 	RXTXLostPackets 	0
scalar IntersectionExampleScenario.node[653].nic.mac1609_4 	TotalLostPackets 	0
scalar IntersectionExampleScenario.node[653].nic.mac1609_4 	DroppedPacketsInMac 	0
scalar IntersectionExampleScenario.node[653].nic.mac1609_4 	TooLittleTime 	0
scalar IntersectionExampleScenario.node[653].nic.mac1609_4 	TimesIntoBackoff 	0
scalar IntersectionExampleScenario.node[653].nic.mac1609_4 	SlotsBackoff 	0
scalar IntersectionExampleScenario.node[653].nic.mac1609_4 	NumInternalContention 	0
scalar IntersectionExampleScenario.node[653].nic.mac1609_4 	totalBusyTime 	0
scalar IntersectionExampleScenario.node[653].veinsmobility 	startTime 	1792.5
scalar IntersectionExampleScenario.node[653].veinsmobility 	totalTime 	7.5
scalar IntersectionExampleScenario.node[653].veinsmobility 	stopTime 	1800
scalar IntersectionExampleScenario.node[653].veinsmobility 	minSpeed 	5.6500000953674
scalar IntersectionExampleScenario.node[653].veinsmobility 	maxSpeed 	15.02499961853
scalar IntersectionExampleScenario.node[653].veinsmobility 	totalDistance 	92.223388671875
scalar IntersectionExampleScenario.node[653].veinsmobility 	totalCO2Emission 	37.510464102627
scalar IntersectionExampleScenario.node[654].appl 	VehicleRemoved 	0
scalar IntersectionExampleScenario.node[654].appl 	ArrivedAtDest 	0
scalar IntersectionExampleScenario.node[654].appl 	IntersectionEnterTime 	1796.75
scalar IntersectionExampleScenario.node[654].appl 	IntersectionExitTime 	-1
scalar IntersectionExampleScenario.node[654].appl 	NumberOfCollisions 	0
scalar IntersectionExampleScenario.node[654].nic.phy80211p 	busyTime 	0
scalar IntersectionExampleScenario.node[654].nic.mac1609_4 	ReceivedUnicastPackets 	0
scalar IntersectionExampleScenario.node[654].nic.mac1609_4 	ReceivedBroadcasts 	0
scalar IntersectionExampleScenario.node[654].nic.mac1609_4 	SentPackets 	0
scalar IntersectionExampleScenario.node[654].nic.mac1609_4 	SNIRLostPackets 	0
scalar IntersectionExampleScenario.node[654].nic.mac1609_4 	RXTXLostPackets 	0
scalar IntersectionExampleScenario.node[654].nic.mac1609_4 	TotalLostPackets 	0
scalar IntersectionExampleScenario.node[654].nic.mac1609_4 	DroppedPacketsInMac 	0
scalar IntersectionExampleScenario.node[654].nic.mac1609_4 	TooLittleTime 	0
scalar IntersectionExampleScenario.node[654].nic.mac1609_4 	TimesIntoBackoff 	0
scalar IntersectionExampleScenario.node[654].nic.mac1609_4 	SlotsBackoff 	0
scalar IntersectionExampleScenario.node[654].nic.mac1609_4 	NumInternalContention 	0
scalar IntersectionExampleScenario.node[654].nic.mac1609_4 	totalBusyTime 	0
scalar IntersectionExampleScenario.node[654].veinsmobility 	startTime 	1796.75
scalar IntersectionExampleScenario.node[654].veinsmobility 	totalTime 	3.25
scalar IntersectionExampleScenario.node[654].veinsmobility 	stopTime 	1800
scalar IntersectionExampleScenario.node[654].veinsmobility 	minSpeed 	5.6500000953674
scalar IntersectionExampleScenario.node[654].veinsmobility 	maxSpeed 	13.14999961853
scalar IntersectionExampleScenario.node[654].veinsmobility 	totalDistance 	29.534370422363
scalar IntersectionExampleScenario.node[654].veinsmobility 	totalCO2Emission 	22.582438530969
scalar IntersectionExampleScenario.node[655].appl 	VehicleRemoved 	0
scalar IntersectionExampleScenario.node[655].appl 	ArrivedAtDest 	0
scalar IntersectionExampleScenario.node[655].appl 	IntersectionEnterTime 	1797.25
scalar IntersectionExampleScenario.node[655].appl 	IntersectionExitTime 	-1
scalar IntersectionExampleScenario.node[655].appl 	NumberOfCollisions 	0
scalar IntersectionExampleScenario.node[655].nic.phy80211p 	busyTime 	0
scalar IntersectionExampleScenario.node[655].nic.mac1609_4 	ReceivedUnicastPackets 	0
scalar IntersectionExampleScenario.node[655].nic.mac1609_4 	ReceivedBroadcasts 	0
scalar IntersectionExampleScenario.node[655].nic.mac1609_4 	SentPackets 	0
scalar IntersectionExampleScenario.node[655].nic.mac1609_4 	SNIRLostPackets 	0
scalar IntersectionExampleScenario.node[655].nic.mac1609_4 	RXTXLostPackets 	0
scalar IntersectionExampleScenario.node[655].nic.mac1609_4 	TotalLostPackets 	0
scalar IntersectionExampleScenario.node[655].nic.mac1609_4 	DroppedPacketsInMac 	0
scalar IntersectionExampleScenario.node[655].nic.mac1609_4 	TooLittleTime 	0
scalar IntersectionExampleScenario.node[655].nic.mac1609_4 	TimesIntoBackoff 	0
scalar IntersectionExampleScenario.node[655].nic.mac1609_4 	SlotsBackoff 	0
scalar IntersectionExampleScenario.node[655].nic.mac1609_4 	NumInternalContention 	0
scalar IntersectionExampleScenario.node[655].nic.mac1609_4 	totalBusyTime 	0
scalar IntersectionExampleScenario.node[655].veinsmobility 	startTime 	1797.25
scalar IntersectionExampleScenario.node[655].veinsmobility 	totalTime 	2.75
scalar IntersectionExampleScenario.node[655].veinsmobility 	stopTime 	1800
scalar IntersectionExampleScenario.node[655].veinsmobility 	minSpeed 	5.6500000953674
scalar IntersectionExampleScenario.node[655].veinsmobility 	maxSpeed 	11.89999961853
scalar IntersectionExampleScenario.node[655].veinsmobility 	totalDistance 	23.271865844727
scalar IntersectionExampleScenario.node[655].veinsmobility 	totalCO2Emission 	17.752607434053
