version 2
run nodebug-39-20200605-15:49:25-11144
attr configname nodebug
attr datetime 20200605-15:49:25
attr experiment nodebug
attr inifile omnetpp.ini
attr iterationvars ""
attr iterationvars2 $repetition=39
attr measurement ""
attr network "\"org.car2x.veins.modules.application.ExtTraCIScenarioManagerLaunchd.IntersectionExampleScenario\""
attr processid 11144
attr repetition 39
attr replication #39
attr resultdir results
attr runnumber 39
attr seedset 39
param **.coreDebug false
param **.debug false
param *.**.nic.mac1609_4.bitrate 18Mbps
param *.**.nic.mac1609_4.txPower 20mW
param *.**.nic.mac1609_4.useServiceChannel false
param *.**.nic.phy80211p.analogueModels "xmldoc(\"config.xml\")"
param *.**.nic.phy80211p.decider "xmldoc(\"config.xml\")"
param *.**.nic.phy80211p.sensitivity -89dBm
param *.**.nic.phy80211p.thermalNoise -110dBm
param *.**.nic.phy80211p.usePropagationDelay true
param *.**.nic.phy80211p.useThermalNoise true
param *.annotations.draw false
param *.connectionManager.alpha 2.0
param *.connectionManager.carrierFrequency "5.890e9 Hz"
param *.connectionManager.pMax 20mW
param *.connectionManager.sat -89dBm
param *.connectionManager.sendDirect true
param *.manager.autoShutdown true
param *.manager.host "\"localhost\""
param *.manager.launchConfig "xmldoc(\"paramics.launchd.xml\")"
param *.manager.margin 25
param *.manager.moduleDisplayString "\"\""
param *.manager.moduleName "\"node\""
param *.manager.moduleType "\"org.car2x.veins.nodes.Car\""
param *.manager.port 9999
param *.manager.updateInterval 250ms
param *.node[*0].veinsmobility.accidentCount 0
param *.node[*0].veinsmobility.accidentDuration 30s
param *.node[*0].veinsmobility.accidentStart 75s
param *.node[*].appl.LiderSelectZoneRadio 55.0
param *.node[*].appl.ShareDataZoneRadio 110.0
param *.node[*].appl.TiempoSemaforo 30.0
param *.node[*].appl.beaconInterval 1s
param *.node[*].appl.beaconPriority 3
param *.node[*].appl.dataOnSch false
param *.node[*].appl.dataPriority 2
param *.node[*].appl.debug false
param *.node[*].appl.headerLength "256 bit"
param *.node[*].appl.maxOffset 0.005s
param *.node[*].appl.sendBeacons false
param *.node[*].appl.sendData true
param *.node[*].applType "\"Dummy\""
param *.node[*].mobilityType "\"TraCIMobility\""
param *.node[*].mobilityType.debug true
param *.node[*].veinsmobility.x 0
param *.node[*].veinsmobility.y 0
param *.node[*].veinsmobility.z 1.895
param *.node[*].veinsmobilityType "\"org.car2x.veins.modules.mobility.traci.TraCIMobility\""
param *.node[*].veinsmobilityType.debug true
param *.playgroundSizeX 8500m
param *.playgroundSizeY 8500m
param *.playgroundSizeZ 50m
param *.world.use2D false
param *.world.useTorus false

scalar IntersectionExampleScenario.node[2].appl 	VehicleRemoved 	0
scalar IntersectionExampleScenario.node[2].appl 	ArrivedAtDest 	1
scalar IntersectionExampleScenario.node[2].appl 	IntersectionEnterTime 	6.75
scalar IntersectionExampleScenario.node[2].appl 	IntersectionExitTime 	29.868055219558
scalar IntersectionExampleScenario.node[2].appl 	NumberOfCollisions 	0
scalar IntersectionExampleScenario.node[2].nic.phy80211p 	busyTime 	0
scalar IntersectionExampleScenario.node[2].nic.mac1609_4 	ReceivedUnicastPackets 	0
scalar IntersectionExampleScenario.node[2].nic.mac1609_4 	ReceivedBroadcasts 	0
scalar IntersectionExampleScenario.node[2].nic.mac1609_4 	SentPackets 	0
scalar IntersectionExampleScenario.node[2].nic.mac1609_4 	SNIRLostPackets 	0
scalar IntersectionExampleScenario.node[2].nic.mac1609_4 	RXTXLostPackets 	0
scalar IntersectionExampleScenario.node[2].nic.mac1609_4 	TotalLostPackets 	0
scalar IntersectionExampleScenario.node[2].nic.mac1609_4 	DroppedPacketsInMac 	0
scalar IntersectionExampleScenario.node[2].nic.mac1609_4 	TooLittleTime 	0
scalar IntersectionExampleScenario.node[2].nic.mac1609_4 	TimesIntoBackoff 	0
scalar IntersectionExampleScenario.node[2].nic.mac1609_4 	SlotsBackoff 	0
scalar IntersectionExampleScenario.node[2].nic.mac1609_4 	NumInternalContention 	0
scalar IntersectionExampleScenario.node[2].nic.mac1609_4 	totalBusyTime 	0
scalar IntersectionExampleScenario.node[2].veinsmobility 	startTime 	6.75
scalar IntersectionExampleScenario.node[2].veinsmobility 	totalTime 	39
scalar IntersectionExampleScenario.node[2].veinsmobility 	stopTime 	46
scalar IntersectionExampleScenario.node[2].veinsmobility 	minSpeed 	5.6500000953674
scalar IntersectionExampleScenario.node[2].veinsmobility 	maxSpeed 	16
scalar IntersectionExampleScenario.node[2].veinsmobility 	totalDistance 	551.5259511822
scalar IntersectionExampleScenario.node[2].veinsmobility 	totalCO2Emission 	125.03908155005
scalar IntersectionExampleScenario.node[3].appl 	VehicleRemoved 	0
scalar IntersectionExampleScenario.node[3].appl 	ArrivedAtDest 	1
scalar IntersectionExampleScenario.node[3].appl 	IntersectionEnterTime 	8.5
scalar IntersectionExampleScenario.node[3].appl 	IntersectionExitTime 	32.618282515352
scalar IntersectionExampleScenario.node[3].appl 	NumberOfCollisions 	0
scalar IntersectionExampleScenario.node[3].nic.phy80211p 	busyTime 	0
scalar IntersectionExampleScenario.node[3].nic.mac1609_4 	ReceivedUnicastPackets 	0
scalar IntersectionExampleScenario.node[3].nic.mac1609_4 	ReceivedBroadcasts 	0
scalar IntersectionExampleScenario.node[3].nic.mac1609_4 	SentPackets 	0
scalar IntersectionExampleScenario.node[3].nic.mac1609_4 	SNIRLostPackets 	0
scalar IntersectionExampleScenario.node[3].nic.mac1609_4 	RXTXLostPackets 	0
scalar IntersectionExampleScenario.node[3].nic.mac1609_4 	TotalLostPackets 	0
scalar IntersectionExampleScenario.node[3].nic.mac1609_4 	DroppedPacketsInMac 	0
scalar IntersectionExampleScenario.node[3].nic.mac1609_4 	TooLittleTime 	0
scalar IntersectionExampleScenario.node[3].nic.mac1609_4 	TimesIntoBackoff 	0
scalar IntersectionExampleScenario.node[3].nic.mac1609_4 	SlotsBackoff 	0
scalar IntersectionExampleScenario.node[3].nic.mac1609_4 	NumInternalContention 	0
scalar IntersectionExampleScenario.node[3].nic.mac1609_4 	totalBusyTime 	0
scalar IntersectionExampleScenario.node[3].veinsmobility 	startTime 	8.5
scalar IntersectionExampleScenario.node[3].veinsmobility 	totalTime 	41
scalar IntersectionExampleScenario.node[3].veinsmobility 	stopTime 	49.75
scalar IntersectionExampleScenario.node[3].veinsmobility 	minSpeed 	5.6500000953674
scalar IntersectionExampleScenario.node[3].veinsmobility 	maxSpeed 	15.02499961853
scalar IntersectionExampleScenario.node[3].veinsmobility 	totalDistance 	552.18257293694
scalar IntersectionExampleScenario.node[3].veinsmobility 	totalCO2Emission 	118.90488403687
scalar IntersectionExampleScenario.node[0].appl 	VehicleRemoved 	0
scalar IntersectionExampleScenario.node[0].appl 	ArrivedAtDest 	1
scalar IntersectionExampleScenario.node[0].appl 	IntersectionEnterTime 	4
scalar IntersectionExampleScenario.node[0].appl 	IntersectionExitTime 	38.515256232669
scalar IntersectionExampleScenario.node[0].appl 	NumberOfCollisions 	0
scalar IntersectionExampleScenario.node[0].nic.phy80211p 	busyTime 	0
scalar IntersectionExampleScenario.node[0].nic.mac1609_4 	ReceivedUnicastPackets 	0
scalar IntersectionExampleScenario.node[0].nic.mac1609_4 	ReceivedBroadcasts 	0
scalar IntersectionExampleScenario.node[0].nic.mac1609_4 	SentPackets 	0
scalar IntersectionExampleScenario.node[0].nic.mac1609_4 	SNIRLostPackets 	0
scalar IntersectionExampleScenario.node[0].nic.mac1609_4 	RXTXLostPackets 	0
scalar IntersectionExampleScenario.node[0].nic.mac1609_4 	TotalLostPackets 	0
scalar IntersectionExampleScenario.node[0].nic.mac1609_4 	DroppedPacketsInMac 	0
scalar IntersectionExampleScenario.node[0].nic.mac1609_4 	TooLittleTime 	0
scalar IntersectionExampleScenario.node[0].nic.mac1609_4 	TimesIntoBackoff 	0
scalar IntersectionExampleScenario.node[0].nic.mac1609_4 	SlotsBackoff 	0
scalar IntersectionExampleScenario.node[0].nic.mac1609_4 	NumInternalContention 	0
scalar IntersectionExampleScenario.node[0].nic.mac1609_4 	totalBusyTime 	0
scalar IntersectionExampleScenario.node[0].veinsmobility 	startTime 	4
scalar IntersectionExampleScenario.node[0].veinsmobility 	totalTime 	50.5
scalar IntersectionExampleScenario.node[0].veinsmobility 	stopTime 	54.75
scalar IntersectionExampleScenario.node[0].veinsmobility 	minSpeed 	0
scalar IntersectionExampleScenario.node[0].veinsmobility 	maxSpeed 	16.5
scalar IntersectionExampleScenario.node[0].veinsmobility 	totalDistance 	543.52646542937
scalar IntersectionExampleScenario.node[0].veinsmobility 	totalCO2Emission 	149.1021701168
scalar IntersectionExampleScenario.node[1].appl 	VehicleRemoved 	0
scalar IntersectionExampleScenario.node[1].appl 	ArrivedAtDest 	1
scalar IntersectionExampleScenario.node[1].appl 	IntersectionEnterTime 	6.25
scalar IntersectionExampleScenario.node[1].appl 	IntersectionExitTime 	41.058930718282
scalar IntersectionExampleScenario.node[1].appl 	NumberOfCollisions 	0
scalar IntersectionExampleScenario.node[1].nic.phy80211p 	busyTime 	0
scalar IntersectionExampleScenario.node[1].nic.mac1609_4 	ReceivedUnicastPackets 	0
scalar IntersectionExampleScenario.node[1].nic.mac1609_4 	ReceivedBroadcasts 	0
scalar IntersectionExampleScenario.node[1].nic.mac1609_4 	SentPackets 	0
scalar IntersectionExampleScenario.node[1].nic.mac1609_4 	SNIRLostPackets 	0
scalar IntersectionExampleScenario.node[1].nic.mac1609_4 	RXTXLostPackets 	0
scalar IntersectionExampleScenario.node[1].nic.mac1609_4 	TotalLostPackets 	0
scalar IntersectionExampleScenario.node[1].nic.mac1609_4 	DroppedPacketsInMac 	0
scalar IntersectionExampleScenario.node[1].nic.mac1609_4 	TooLittleTime 	0
scalar IntersectionExampleScenario.node[1].nic.mac1609_4 	TimesIntoBackoff 	0
scalar IntersectionExampleScenario.node[1].nic.mac1609_4 	SlotsBackoff 	0
scalar IntersectionExampleScenario.node[1].nic.mac1609_4 	NumInternalContention 	0
scalar IntersectionExampleScenario.node[1].nic.mac1609_4 	totalBusyTime 	0
scalar IntersectionExampleScenario.node[1].veinsmobility 	startTime 	6.25
scalar IntersectionExampleScenario.node[1].veinsmobility 	totalTime 	51.25
scalar IntersectionExampleScenario.node[1].veinsmobility 	stopTime 	57.75
scalar IntersectionExampleScenario.node[1].veinsmobility 	minSpeed 	0
scalar IntersectionExampleScenario.node[1].veinsmobility 	maxSpeed 	15.875
scalar IntersectionExampleScenario.node[1].veinsmobility 	totalDistance 	561.09034777031
scalar IntersectionExampleScenario.node[1].veinsmobility 	totalCO2Emission 	144.43112749876
scalar IntersectionExampleScenario.node[6].appl 	VehicleRemoved 	0
scalar IntersectionExampleScenario.node[6].appl 	ArrivedAtDest 	1
scalar IntersectionExampleScenario.node[6].appl 	IntersectionEnterTime 	22.75
scalar IntersectionExampleScenario.node[6].appl 	IntersectionExitTime 	44.769643226813
scalar IntersectionExampleScenario.node[6].appl 	NumberOfCollisions 	0
scalar IntersectionExampleScenario.node[6].nic.phy80211p 	busyTime 	0
scalar IntersectionExampleScenario.node[6].nic.mac1609_4 	ReceivedUnicastPackets 	0
scalar IntersectionExampleScenario.node[6].nic.mac1609_4 	ReceivedBroadcasts 	0
scalar IntersectionExampleScenario.node[6].nic.mac1609_4 	SentPackets 	0
scalar IntersectionExampleScenario.node[6].nic.mac1609_4 	SNIRLostPackets 	0
scalar IntersectionExampleScenario.node[6].nic.mac1609_4 	RXTXLostPackets 	0
scalar IntersectionExampleScenario.node[6].nic.mac1609_4 	TotalLostPackets 	0
scalar IntersectionExampleScenario.node[6].nic.mac1609_4 	DroppedPacketsInMac 	0
scalar IntersectionExampleScenario.node[6].nic.mac1609_4 	TooLittleTime 	0
scalar IntersectionExampleScenario.node[6].nic.mac1609_4 	TimesIntoBackoff 	0
scalar IntersectionExampleScenario.node[6].nic.mac1609_4 	SlotsBackoff 	0
scalar IntersectionExampleScenario.node[6].nic.mac1609_4 	NumInternalContention 	0
scalar IntersectionExampleScenario.node[6].nic.mac1609_4 	totalBusyTime 	0
scalar IntersectionExampleScenario.node[6].veinsmobility 	startTime 	22.75
scalar IntersectionExampleScenario.node[6].veinsmobility 	totalTime 	37.5
scalar IntersectionExampleScenario.node[6].veinsmobility 	stopTime 	60.5
scalar IntersectionExampleScenario.node[6].veinsmobility 	minSpeed 	5.6500000953674
scalar IntersectionExampleScenario.node[6].veinsmobility 	maxSpeed 	16.533699035645
scalar IntersectionExampleScenario.node[6].veinsmobility 	totalDistance 	554.91732788086
scalar IntersectionExampleScenario.node[6].veinsmobility 	totalCO2Emission 	128.43698402269
scalar IntersectionExampleScenario.node[8].appl 	VehicleRemoved 	0
scalar IntersectionExampleScenario.node[8].appl 	ArrivedAtDest 	1
scalar IntersectionExampleScenario.node[8].appl 	IntersectionEnterTime 	35.25
scalar IntersectionExampleScenario.node[8].appl 	IntersectionExitTime 	57.581569653557
scalar IntersectionExampleScenario.node[8].appl 	NumberOfCollisions 	0
scalar IntersectionExampleScenario.node[8].nic.phy80211p 	busyTime 	0
scalar IntersectionExampleScenario.node[8].nic.mac1609_4 	ReceivedUnicastPackets 	0
scalar IntersectionExampleScenario.node[8].nic.mac1609_4 	ReceivedBroadcasts 	0
scalar IntersectionExampleScenario.node[8].nic.mac1609_4 	SentPackets 	0
scalar IntersectionExampleScenario.node[8].nic.mac1609_4 	SNIRLostPackets 	0
scalar IntersectionExampleScenario.node[8].nic.mac1609_4 	RXTXLostPackets 	0
scalar IntersectionExampleScenario.node[8].nic.mac1609_4 	TotalLostPackets 	0
scalar IntersectionExampleScenario.node[8].nic.mac1609_4 	DroppedPacketsInMac 	0
scalar IntersectionExampleScenario.node[8].nic.mac1609_4 	TooLittleTime 	0
scalar IntersectionExampleScenario.node[8].nic.mac1609_4 	TimesIntoBackoff 	0
scalar IntersectionExampleScenario.node[8].nic.mac1609_4 	SlotsBackoff 	0
scalar IntersectionExampleScenario.node[8].nic.mac1609_4 	NumInternalContention 	0
scalar IntersectionExampleScenario.node[8].nic.mac1609_4 	totalBusyTime 	0
scalar IntersectionExampleScenario.node[8].veinsmobility 	startTime 	35.25
scalar IntersectionExampleScenario.node[8].veinsmobility 	totalTime 	37.75
scalar IntersectionExampleScenario.node[8].veinsmobility 	stopTime 	73.25
scalar IntersectionExampleScenario.node[8].veinsmobility 	minSpeed 	5.6500000953674
scalar IntersectionExampleScenario.node[8].veinsmobility 	maxSpeed 	16.625
scalar IntersectionExampleScenario.node[8].veinsmobility 	totalDistance 	549.81216196182
scalar IntersectionExampleScenario.node[8].veinsmobility 	totalCO2Emission 	129.18511853609
scalar IntersectionExampleScenario.node[11].appl 	VehicleRemoved 	0
scalar IntersectionExampleScenario.node[11].appl 	ArrivedAtDest 	1
scalar IntersectionExampleScenario.node[11].appl 	IntersectionEnterTime 	40.25
scalar IntersectionExampleScenario.node[11].appl 	IntersectionExitTime 	63.780816955783
scalar IntersectionExampleScenario.node[11].appl 	NumberOfCollisions 	0
scalar IntersectionExampleScenario.node[11].nic.phy80211p 	busyTime 	0
scalar IntersectionExampleScenario.node[11].nic.mac1609_4 	ReceivedUnicastPackets 	0
scalar IntersectionExampleScenario.node[11].nic.mac1609_4 	ReceivedBroadcasts 	0
scalar IntersectionExampleScenario.node[11].nic.mac1609_4 	SentPackets 	0
scalar IntersectionExampleScenario.node[11].nic.mac1609_4 	SNIRLostPackets 	0
scalar IntersectionExampleScenario.node[11].nic.mac1609_4 	RXTXLostPackets 	0
scalar IntersectionExampleScenario.node[11].nic.mac1609_4 	TotalLostPackets 	0
scalar IntersectionExampleScenario.node[11].nic.mac1609_4 	DroppedPacketsInMac 	0
scalar IntersectionExampleScenario.node[11].nic.mac1609_4 	TooLittleTime 	0
scalar IntersectionExampleScenario.node[11].nic.mac1609_4 	TimesIntoBackoff 	0
scalar IntersectionExampleScenario.node[11].nic.mac1609_4 	SlotsBackoff 	0
scalar IntersectionExampleScenario.node[11].nic.mac1609_4 	NumInternalContention 	0
scalar IntersectionExampleScenario.node[11].nic.mac1609_4 	totalBusyTime 	0
scalar IntersectionExampleScenario.node[11].veinsmobility 	startTime 	40.25
scalar IntersectionExampleScenario.node[11].veinsmobility 	totalTime 	40
scalar IntersectionExampleScenario.node[11].veinsmobility 	stopTime 	80.5
scalar IntersectionExampleScenario.node[11].veinsmobility 	minSpeed 	5.6500000953674
scalar IntersectionExampleScenario.node[11].veinsmobility 	maxSpeed 	15.375
scalar IntersectionExampleScenario.node[11].veinsmobility 	totalDistance 	551.17336740261
scalar IntersectionExampleScenario.node[11].veinsmobility 	totalCO2Emission 	121.26218572106
scalar IntersectionExampleScenario.node[4].appl 	VehicleRemoved 	0
scalar IntersectionExampleScenario.node[4].appl 	ArrivedAtDest 	1
scalar IntersectionExampleScenario.node[4].appl 	IntersectionEnterTime 	17.75
scalar IntersectionExampleScenario.node[4].appl 	IntersectionExitTime 	68.357550476125
scalar IntersectionExampleScenario.node[4].appl 	NumberOfCollisions 	0
scalar IntersectionExampleScenario.node[4].nic.phy80211p 	busyTime 	0
scalar IntersectionExampleScenario.node[4].nic.mac1609_4 	ReceivedUnicastPackets 	0
scalar IntersectionExampleScenario.node[4].nic.mac1609_4 	ReceivedBroadcasts 	0
scalar IntersectionExampleScenario.node[4].nic.mac1609_4 	SentPackets 	0
scalar IntersectionExampleScenario.node[4].nic.mac1609_4 	SNIRLostPackets 	0
scalar IntersectionExampleScenario.node[4].nic.mac1609_4 	RXTXLostPackets 	0
scalar IntersectionExampleScenario.node[4].nic.mac1609_4 	TotalLostPackets 	0
scalar IntersectionExampleScenario.node[4].nic.mac1609_4 	DroppedPacketsInMac 	0
scalar IntersectionExampleScenario.node[4].nic.mac1609_4 	TooLittleTime 	0
scalar IntersectionExampleScenario.node[4].nic.mac1609_4 	TimesIntoBackoff 	0
scalar IntersectionExampleScenario.node[4].nic.mac1609_4 	SlotsBackoff 	0
scalar IntersectionExampleScenario.node[4].nic.mac1609_4 	NumInternalContention 	0
scalar IntersectionExampleScenario.node[4].nic.mac1609_4 	totalBusyTime 	0
scalar IntersectionExampleScenario.node[4].veinsmobility 	startTime 	17.75
scalar IntersectionExampleScenario.node[4].veinsmobility 	totalTime 	67
scalar IntersectionExampleScenario.node[4].veinsmobility 	stopTime 	85
scalar IntersectionExampleScenario.node[4].veinsmobility 	minSpeed 	0
scalar IntersectionExampleScenario.node[4].veinsmobility 	maxSpeed 	15.02499961853
scalar IntersectionExampleScenario.node[4].veinsmobility 	totalDistance 	552.3733291626
scalar IntersectionExampleScenario.node[4].veinsmobility 	totalCO2Emission 	154.64363173579
scalar IntersectionExampleScenario.node[12].appl 	VehicleRemoved 	0
scalar IntersectionExampleScenario.node[12].appl 	ArrivedAtDest 	1
scalar IntersectionExampleScenario.node[12].appl 	IntersectionEnterTime 	43.25
scalar IntersectionExampleScenario.node[12].appl 	IntersectionExitTime 	70.556141728652
scalar IntersectionExampleScenario.node[12].appl 	NumberOfCollisions 	0
scalar IntersectionExampleScenario.node[12].nic.phy80211p 	busyTime 	0
scalar IntersectionExampleScenario.node[12].nic.mac1609_4 	ReceivedUnicastPackets 	0
scalar IntersectionExampleScenario.node[12].nic.mac1609_4 	ReceivedBroadcasts 	0
scalar IntersectionExampleScenario.node[12].nic.mac1609_4 	SentPackets 	0
scalar IntersectionExampleScenario.node[12].nic.mac1609_4 	SNIRLostPackets 	0
scalar IntersectionExampleScenario.node[12].nic.mac1609_4 	RXTXLostPackets 	0
scalar IntersectionExampleScenario.node[12].nic.mac1609_4 	TotalLostPackets 	0
scalar IntersectionExampleScenario.node[12].nic.mac1609_4 	DroppedPacketsInMac 	0
scalar IntersectionExampleScenario.node[12].nic.mac1609_4 	TooLittleTime 	0
scalar IntersectionExampleScenario.node[12].nic.mac1609_4 	TimesIntoBackoff 	0
scalar IntersectionExampleScenario.node[12].nic.mac1609_4 	SlotsBackoff 	0
scalar IntersectionExampleScenario.node[12].nic.mac1609_4 	NumInternalContention 	0
scalar IntersectionExampleScenario.node[12].nic.mac1609_4 	totalBusyTime 	0
scalar IntersectionExampleScenario.node[12].veinsmobility 	startTime 	43.25
scalar IntersectionExampleScenario.node[12].veinsmobility 	totalTime 	43
scalar IntersectionExampleScenario.node[12].veinsmobility 	stopTime 	86.5
scalar IntersectionExampleScenario.node[12].veinsmobility 	minSpeed 	4.9740567207336
scalar IntersectionExampleScenario.node[12].veinsmobility 	maxSpeed 	15.64999961853
scalar IntersectionExampleScenario.node[12].veinsmobility 	totalDistance 	551.60617828369
scalar IntersectionExampleScenario.node[12].veinsmobility 	totalCO2Emission 	133.65663237326
scalar IntersectionExampleScenario.node[13].appl 	VehicleRemoved 	0
scalar IntersectionExampleScenario.node[13].appl 	ArrivedAtDest 	1
scalar IntersectionExampleScenario.node[13].appl 	IntersectionEnterTime 	49
scalar IntersectionExampleScenario.node[13].appl 	IntersectionExitTime 	73.060611696215
scalar IntersectionExampleScenario.node[13].appl 	NumberOfCollisions 	0
scalar IntersectionExampleScenario.node[13].nic.phy80211p 	busyTime 	0
scalar IntersectionExampleScenario.node[13].nic.mac1609_4 	ReceivedUnicastPackets 	0
scalar IntersectionExampleScenario.node[13].nic.mac1609_4 	ReceivedBroadcasts 	0
scalar IntersectionExampleScenario.node[13].nic.mac1609_4 	SentPackets 	0
scalar IntersectionExampleScenario.node[13].nic.mac1609_4 	SNIRLostPackets 	0
scalar IntersectionExampleScenario.node[13].nic.mac1609_4 	RXTXLostPackets 	0
scalar IntersectionExampleScenario.node[13].nic.mac1609_4 	TotalLostPackets 	0
scalar IntersectionExampleScenario.node[13].nic.mac1609_4 	DroppedPacketsInMac 	0
scalar IntersectionExampleScenario.node[13].nic.mac1609_4 	TooLittleTime 	0
scalar IntersectionExampleScenario.node[13].nic.mac1609_4 	TimesIntoBackoff 	0
scalar IntersectionExampleScenario.node[13].nic.mac1609_4 	SlotsBackoff 	0
scalar IntersectionExampleScenario.node[13].nic.mac1609_4 	NumInternalContention 	0
scalar IntersectionExampleScenario.node[13].nic.mac1609_4 	totalBusyTime 	0
scalar IntersectionExampleScenario.node[13].veinsmobility 	startTime 	49
scalar IntersectionExampleScenario.node[13].veinsmobility 	totalTime 	39.75
scalar IntersectionExampleScenario.node[13].veinsmobility 	stopTime 	89
scalar IntersectionExampleScenario.node[13].veinsmobility 	minSpeed 	5.6500000953674
scalar IntersectionExampleScenario.node[13].veinsmobility 	maxSpeed 	15.64999961853
scalar IntersectionExampleScenario.node[13].veinsmobility 	totalDistance 	553.52768707275
scalar IntersectionExampleScenario.node[13].veinsmobility 	totalCO2Emission 	128.91459057649
scalar IntersectionExampleScenario.node[15].appl 	VehicleRemoved 	0
scalar IntersectionExampleScenario.node[15].appl 	ArrivedAtDest 	1
scalar IntersectionExampleScenario.node[15].appl 	IntersectionEnterTime 	52.5
scalar IntersectionExampleScenario.node[15].appl 	IntersectionExitTime 	76.269469494961
scalar IntersectionExampleScenario.node[15].appl 	NumberOfCollisions 	0
scalar IntersectionExampleScenario.node[15].nic.phy80211p 	busyTime 	0
scalar IntersectionExampleScenario.node[15].nic.mac1609_4 	ReceivedUnicastPackets 	0
scalar IntersectionExampleScenario.node[15].nic.mac1609_4 	ReceivedBroadcasts 	0
scalar IntersectionExampleScenario.node[15].nic.mac1609_4 	SentPackets 	0
scalar IntersectionExampleScenario.node[15].nic.mac1609_4 	SNIRLostPackets 	0
scalar IntersectionExampleScenario.node[15].nic.mac1609_4 	RXTXLostPackets 	0
scalar IntersectionExampleScenario.node[15].nic.mac1609_4 	TotalLostPackets 	0
scalar IntersectionExampleScenario.node[15].nic.mac1609_4 	DroppedPacketsInMac 	0
scalar IntersectionExampleScenario.node[15].nic.mac1609_4 	TooLittleTime 	0
scalar IntersectionExampleScenario.node[15].nic.mac1609_4 	TimesIntoBackoff 	0
scalar IntersectionExampleScenario.node[15].nic.mac1609_4 	SlotsBackoff 	0
scalar IntersectionExampleScenario.node[15].nic.mac1609_4 	NumInternalContention 	0
scalar IntersectionExampleScenario.node[15].nic.mac1609_4 	totalBusyTime 	0
scalar IntersectionExampleScenario.node[15].veinsmobility 	startTime 	52.5
scalar IntersectionExampleScenario.node[15].veinsmobility 	totalTime 	40
scalar IntersectionExampleScenario.node[15].veinsmobility 	stopTime 	92.75
scalar IntersectionExampleScenario.node[15].veinsmobility 	minSpeed 	5.6500000953674
scalar IntersectionExampleScenario.node[15].veinsmobility 	maxSpeed 	15.64999961853
scalar IntersectionExampleScenario.node[15].veinsmobility 	totalDistance 	558.63309143312
scalar IntersectionExampleScenario.node[15].veinsmobility 	totalCO2Emission 	123.89420832475
scalar IntersectionExampleScenario.node[20].appl 	VehicleRemoved 	0
scalar IntersectionExampleScenario.node[20].appl 	ArrivedAtDest 	1
scalar IntersectionExampleScenario.node[20].appl 	IntersectionEnterTime 	60.25
scalar IntersectionExampleScenario.node[20].appl 	IntersectionExitTime 	84.090305080666
scalar IntersectionExampleScenario.node[20].appl 	NumberOfCollisions 	0
scalar IntersectionExampleScenario.node[20].nic.phy80211p 	busyTime 	0
scalar IntersectionExampleScenario.node[20].nic.mac1609_4 	ReceivedUnicastPackets 	0
scalar IntersectionExampleScenario.node[20].nic.mac1609_4 	ReceivedBroadcasts 	0
scalar IntersectionExampleScenario.node[20].nic.mac1609_4 	SentPackets 	0
scalar IntersectionExampleScenario.node[20].nic.mac1609_4 	SNIRLostPackets 	0
scalar IntersectionExampleScenario.node[20].nic.mac1609_4 	RXTXLostPackets 	0
scalar IntersectionExampleScenario.node[20].nic.mac1609_4 	TotalLostPackets 	0
scalar IntersectionExampleScenario.node[20].nic.mac1609_4 	DroppedPacketsInMac 	0
scalar IntersectionExampleScenario.node[20].nic.mac1609_4 	TooLittleTime 	0
scalar IntersectionExampleScenario.node[20].nic.mac1609_4 	TimesIntoBackoff 	0
scalar IntersectionExampleScenario.node[20].nic.mac1609_4 	SlotsBackoff 	0
scalar IntersectionExampleScenario.node[20].nic.mac1609_4 	NumInternalContention 	0
scalar IntersectionExampleScenario.node[20].nic.mac1609_4 	totalBusyTime 	0
scalar IntersectionExampleScenario.node[20].veinsmobility 	startTime 	60.25
scalar IntersectionExampleScenario.node[20].veinsmobility 	totalTime 	40.75
scalar IntersectionExampleScenario.node[20].veinsmobility 	stopTime 	101.25
scalar IntersectionExampleScenario.node[20].veinsmobility 	minSpeed 	5.6500000953674
scalar IntersectionExampleScenario.node[20].veinsmobility 	maxSpeed 	15.25
scalar IntersectionExampleScenario.node[20].veinsmobility 	totalDistance 	544.57391972019
scalar IntersectionExampleScenario.node[20].veinsmobility 	totalCO2Emission 	124.39965242606
scalar IntersectionExampleScenario.node[7].appl 	VehicleRemoved 	0
scalar IntersectionExampleScenario.node[7].appl 	ArrivedAtDest 	1
scalar IntersectionExampleScenario.node[7].appl 	IntersectionEnterTime 	33.75
scalar IntersectionExampleScenario.node[7].appl 	IntersectionExitTime 	90.318593647098
scalar IntersectionExampleScenario.node[7].appl 	NumberOfCollisions 	0
scalar IntersectionExampleScenario.node[7].nic.phy80211p 	busyTime 	0
scalar IntersectionExampleScenario.node[7].nic.mac1609_4 	ReceivedUnicastPackets 	0
scalar IntersectionExampleScenario.node[7].nic.mac1609_4 	ReceivedBroadcasts 	0
scalar IntersectionExampleScenario.node[7].nic.mac1609_4 	SentPackets 	0
scalar IntersectionExampleScenario.node[7].nic.mac1609_4 	SNIRLostPackets 	0
scalar IntersectionExampleScenario.node[7].nic.mac1609_4 	RXTXLostPackets 	0
scalar IntersectionExampleScenario.node[7].nic.mac1609_4 	TotalLostPackets 	0
scalar IntersectionExampleScenario.node[7].nic.mac1609_4 	DroppedPacketsInMac 	0
scalar IntersectionExampleScenario.node[7].nic.mac1609_4 	TooLittleTime 	0
scalar IntersectionExampleScenario.node[7].nic.mac1609_4 	TimesIntoBackoff 	0
scalar IntersectionExampleScenario.node[7].nic.mac1609_4 	SlotsBackoff 	0
scalar IntersectionExampleScenario.node[7].nic.mac1609_4 	NumInternalContention 	0
scalar IntersectionExampleScenario.node[7].nic.mac1609_4 	totalBusyTime 	0
scalar IntersectionExampleScenario.node[7].veinsmobility 	startTime 	33.75
scalar IntersectionExampleScenario.node[7].veinsmobility 	totalTime 	72
scalar IntersectionExampleScenario.node[7].veinsmobility 	stopTime 	106
scalar IntersectionExampleScenario.node[7].veinsmobility 	minSpeed 	0
scalar IntersectionExampleScenario.node[7].veinsmobility 	maxSpeed 	16.27499961853
scalar IntersectionExampleScenario.node[7].veinsmobility 	totalDistance 	553.67551422119
scalar IntersectionExampleScenario.node[7].veinsmobility 	totalCO2Emission 	169.53368354329
scalar IntersectionExampleScenario.node[5].appl 	VehicleRemoved 	0
scalar IntersectionExampleScenario.node[5].appl 	ArrivedAtDest 	1
scalar IntersectionExampleScenario.node[5].appl 	IntersectionEnterTime 	20.5
scalar IntersectionExampleScenario.node[5].appl 	IntersectionExitTime 	89.536996680254
scalar IntersectionExampleScenario.node[5].appl 	NumberOfCollisions 	0
scalar IntersectionExampleScenario.node[5].nic.phy80211p 	busyTime 	0
scalar IntersectionExampleScenario.node[5].nic.mac1609_4 	ReceivedUnicastPackets 	0
scalar IntersectionExampleScenario.node[5].nic.mac1609_4 	ReceivedBroadcasts 	0
scalar IntersectionExampleScenario.node[5].nic.mac1609_4 	SentPackets 	0
scalar IntersectionExampleScenario.node[5].nic.mac1609_4 	SNIRLostPackets 	0
scalar IntersectionExampleScenario.node[5].nic.mac1609_4 	RXTXLostPackets 	0
scalar IntersectionExampleScenario.node[5].nic.mac1609_4 	TotalLostPackets 	0
scalar IntersectionExampleScenario.node[5].nic.mac1609_4 	DroppedPacketsInMac 	0
scalar IntersectionExampleScenario.node[5].nic.mac1609_4 	TooLittleTime 	0
scalar IntersectionExampleScenario.node[5].nic.mac1609_4 	TimesIntoBackoff 	0
scalar IntersectionExampleScenario.node[5].nic.mac1609_4 	SlotsBackoff 	0
scalar IntersectionExampleScenario.node[5].nic.mac1609_4 	NumInternalContention 	0
scalar IntersectionExampleScenario.node[5].nic.mac1609_4 	totalBusyTime 	0
scalar IntersectionExampleScenario.node[5].veinsmobility 	startTime 	20.5
scalar IntersectionExampleScenario.node[5].veinsmobility 	totalTime 	86
scalar IntersectionExampleScenario.node[5].veinsmobility 	stopTime 	106.75
scalar IntersectionExampleScenario.node[5].veinsmobility 	minSpeed 	0
scalar IntersectionExampleScenario.node[5].veinsmobility 	maxSpeed 	15.25
scalar IntersectionExampleScenario.node[5].veinsmobility 	totalDistance 	543.38603879363
scalar IntersectionExampleScenario.node[5].veinsmobility 	totalCO2Emission 	173.99026551698
scalar IntersectionExampleScenario.node[10].appl 	VehicleRemoved 	0
scalar IntersectionExampleScenario.node[10].appl 	ArrivedAtDest 	1
scalar IntersectionExampleScenario.node[10].appl 	IntersectionEnterTime 	38.75
scalar IntersectionExampleScenario.node[10].appl 	IntersectionExitTime 	91.312016829877
scalar IntersectionExampleScenario.node[10].appl 	NumberOfCollisions 	0
scalar IntersectionExampleScenario.node[10].nic.phy80211p 	busyTime 	0
scalar IntersectionExampleScenario.node[10].nic.mac1609_4 	ReceivedUnicastPackets 	0
scalar IntersectionExampleScenario.node[10].nic.mac1609_4 	ReceivedBroadcasts 	0
scalar IntersectionExampleScenario.node[10].nic.mac1609_4 	SentPackets 	0
scalar IntersectionExampleScenario.node[10].nic.mac1609_4 	SNIRLostPackets 	0
scalar IntersectionExampleScenario.node[10].nic.mac1609_4 	RXTXLostPackets 	0
scalar IntersectionExampleScenario.node[10].nic.mac1609_4 	TotalLostPackets 	0
scalar IntersectionExampleScenario.node[10].nic.mac1609_4 	DroppedPacketsInMac 	0
scalar IntersectionExampleScenario.node[10].nic.mac1609_4 	TooLittleTime 	0
scalar IntersectionExampleScenario.node[10].nic.mac1609_4 	TimesIntoBackoff 	0
scalar IntersectionExampleScenario.node[10].nic.mac1609_4 	SlotsBackoff 	0
scalar IntersectionExampleScenario.node[10].nic.mac1609_4 	NumInternalContention 	0
scalar IntersectionExampleScenario.node[10].nic.mac1609_4 	totalBusyTime 	0
scalar IntersectionExampleScenario.node[10].veinsmobility 	startTime 	38.75
scalar IntersectionExampleScenario.node[10].veinsmobility 	totalTime 	68.25
scalar IntersectionExampleScenario.node[10].veinsmobility 	stopTime 	107.25
scalar IntersectionExampleScenario.node[10].veinsmobility 	minSpeed 	0
scalar IntersectionExampleScenario.node[10].veinsmobility 	maxSpeed 	16.125
scalar IntersectionExampleScenario.node[10].veinsmobility 	totalDistance 	553.24005126953
scalar IntersectionExampleScenario.node[10].veinsmobility 	totalCO2Emission 	161.63669538218
scalar IntersectionExampleScenario.node[9].appl 	VehicleRemoved 	0
scalar IntersectionExampleScenario.node[9].appl 	ArrivedAtDest 	1
scalar IntersectionExampleScenario.node[9].appl 	IntersectionEnterTime 	38.5
scalar IntersectionExampleScenario.node[9].appl 	IntersectionExitTime 	91.855980597466
scalar IntersectionExampleScenario.node[9].appl 	NumberOfCollisions 	0
scalar IntersectionExampleScenario.node[9].nic.phy80211p 	busyTime 	0
scalar IntersectionExampleScenario.node[9].nic.mac1609_4 	ReceivedUnicastPackets 	0
scalar IntersectionExampleScenario.node[9].nic.mac1609_4 	ReceivedBroadcasts 	0
scalar IntersectionExampleScenario.node[9].nic.mac1609_4 	SentPackets 	0
scalar IntersectionExampleScenario.node[9].nic.mac1609_4 	SNIRLostPackets 	0
scalar IntersectionExampleScenario.node[9].nic.mac1609_4 	RXTXLostPackets 	0
scalar IntersectionExampleScenario.node[9].nic.mac1609_4 	TotalLostPackets 	0
scalar IntersectionExampleScenario.node[9].nic.mac1609_4 	DroppedPacketsInMac 	0
scalar IntersectionExampleScenario.node[9].nic.mac1609_4 	TooLittleTime 	0
scalar IntersectionExampleScenario.node[9].nic.mac1609_4 	TimesIntoBackoff 	0
scalar IntersectionExampleScenario.node[9].nic.mac1609_4 	SlotsBackoff 	0
scalar IntersectionExampleScenario.node[9].nic.mac1609_4 	NumInternalContention 	0
scalar IntersectionExampleScenario.node[9].nic.mac1609_4 	totalBusyTime 	0
scalar IntersectionExampleScenario.node[9].veinsmobility 	startTime 	38.5
scalar IntersectionExampleScenario.node[9].veinsmobility 	totalTime 	70
scalar IntersectionExampleScenario.node[9].veinsmobility 	stopTime 	108.75
scalar IntersectionExampleScenario.node[9].veinsmobility 	minSpeed 	0
scalar IntersectionExampleScenario.node[9].veinsmobility 	maxSpeed 	15.02499961853
scalar IntersectionExampleScenario.node[9].veinsmobility 	totalDistance 	551.21168044145
scalar IntersectionExampleScenario.node[9].veinsmobility 	totalCO2Emission 	157.99463971176
scalar IntersectionExampleScenario.node[14].appl 	VehicleRemoved 	0
scalar IntersectionExampleScenario.node[14].appl 	ArrivedAtDest 	1
scalar IntersectionExampleScenario.node[14].appl 	IntersectionEnterTime 	51.25
scalar IntersectionExampleScenario.node[14].appl 	IntersectionExitTime 	93.567050629499
scalar IntersectionExampleScenario.node[14].appl 	NumberOfCollisions 	0
scalar IntersectionExampleScenario.node[14].nic.phy80211p 	busyTime 	0
scalar IntersectionExampleScenario.node[14].nic.mac1609_4 	ReceivedUnicastPackets 	0
scalar IntersectionExampleScenario.node[14].nic.mac1609_4 	ReceivedBroadcasts 	0
scalar IntersectionExampleScenario.node[14].nic.mac1609_4 	SentPackets 	0
scalar IntersectionExampleScenario.node[14].nic.mac1609_4 	SNIRLostPackets 	0
scalar IntersectionExampleScenario.node[14].nic.mac1609_4 	RXTXLostPackets 	0
scalar IntersectionExampleScenario.node[14].nic.mac1609_4 	TotalLostPackets 	0
scalar IntersectionExampleScenario.node[14].nic.mac1609_4 	DroppedPacketsInMac 	0
scalar IntersectionExampleScenario.node[14].nic.mac1609_4 	TooLittleTime 	0
scalar IntersectionExampleScenario.node[14].nic.mac1609_4 	TimesIntoBackoff 	0
scalar IntersectionExampleScenario.node[14].nic.mac1609_4 	SlotsBackoff 	0
scalar IntersectionExampleScenario.node[14].nic.mac1609_4 	NumInternalContention 	0
scalar IntersectionExampleScenario.node[14].nic.mac1609_4 	totalBusyTime 	0
scalar IntersectionExampleScenario.node[14].veinsmobility 	startTime 	51.25
scalar IntersectionExampleScenario.node[14].veinsmobility 	totalTime 	57.5
scalar IntersectionExampleScenario.node[14].veinsmobility 	stopTime 	109
scalar IntersectionExampleScenario.node[14].veinsmobility 	minSpeed 	0
scalar IntersectionExampleScenario.node[14].veinsmobility 	maxSpeed 	16.27499961853
scalar IntersectionExampleScenario.node[14].veinsmobility 	totalDistance 	553.75576782227
scalar IntersectionExampleScenario.node[14].veinsmobility 	totalCO2Emission 	154.57667926827
scalar IntersectionExampleScenario.node[17].appl 	VehicleRemoved 	0
scalar IntersectionExampleScenario.node[17].appl 	ArrivedAtDest 	1
scalar IntersectionExampleScenario.node[17].appl 	IntersectionEnterTime 	54.25
scalar IntersectionExampleScenario.node[17].appl 	IntersectionExitTime 	93.776963561977
scalar IntersectionExampleScenario.node[17].appl 	NumberOfCollisions 	0
scalar IntersectionExampleScenario.node[17].nic.phy80211p 	busyTime 	0
scalar IntersectionExampleScenario.node[17].nic.mac1609_4 	ReceivedUnicastPackets 	0
scalar IntersectionExampleScenario.node[17].nic.mac1609_4 	ReceivedBroadcasts 	0
scalar IntersectionExampleScenario.node[17].nic.mac1609_4 	SentPackets 	0
scalar IntersectionExampleScenario.node[17].nic.mac1609_4 	SNIRLostPackets 	0
scalar IntersectionExampleScenario.node[17].nic.mac1609_4 	RXTXLostPackets 	0
scalar IntersectionExampleScenario.node[17].nic.mac1609_4 	TotalLostPackets 	0
scalar IntersectionExampleScenario.node[17].nic.mac1609_4 	DroppedPacketsInMac 	0
scalar IntersectionExampleScenario.node[17].nic.mac1609_4 	TooLittleTime 	0
scalar IntersectionExampleScenario.node[17].nic.mac1609_4 	TimesIntoBackoff 	0
scalar IntersectionExampleScenario.node[17].nic.mac1609_4 	SlotsBackoff 	0
scalar IntersectionExampleScenario.node[17].nic.mac1609_4 	NumInternalContention 	0
scalar IntersectionExampleScenario.node[17].nic.mac1609_4 	totalBusyTime 	0
scalar IntersectionExampleScenario.node[17].veinsmobility 	startTime 	54.25
scalar IntersectionExampleScenario.node[17].veinsmobility 	totalTime 	56.5
scalar IntersectionExampleScenario.node[17].veinsmobility 	stopTime 	111
scalar IntersectionExampleScenario.node[17].veinsmobility 	minSpeed 	0
scalar IntersectionExampleScenario.node[17].veinsmobility 	maxSpeed 	15.25
scalar IntersectionExampleScenario.node[17].veinsmobility 	totalDistance 	544.00927707713
scalar IntersectionExampleScenario.node[17].veinsmobility 	totalCO2Emission 	143.08581530482
scalar IntersectionExampleScenario.node[16].appl 	VehicleRemoved 	0
scalar IntersectionExampleScenario.node[16].appl 	ArrivedAtDest 	1
scalar IntersectionExampleScenario.node[16].appl 	IntersectionEnterTime 	53.75
scalar IntersectionExampleScenario.node[16].appl 	IntersectionExitTime 	95.846907506144
scalar IntersectionExampleScenario.node[16].appl 	NumberOfCollisions 	0
scalar IntersectionExampleScenario.node[16].nic.phy80211p 	busyTime 	0
scalar IntersectionExampleScenario.node[16].nic.mac1609_4 	ReceivedUnicastPackets 	0
scalar IntersectionExampleScenario.node[16].nic.mac1609_4 	ReceivedBroadcasts 	0
scalar IntersectionExampleScenario.node[16].nic.mac1609_4 	SentPackets 	0
scalar IntersectionExampleScenario.node[16].nic.mac1609_4 	SNIRLostPackets 	0
scalar IntersectionExampleScenario.node[16].nic.mac1609_4 	RXTXLostPackets 	0
scalar IntersectionExampleScenario.node[16].nic.mac1609_4 	TotalLostPackets 	0
scalar IntersectionExampleScenario.node[16].nic.mac1609_4 	DroppedPacketsInMac 	0
scalar IntersectionExampleScenario.node[16].nic.mac1609_4 	TooLittleTime 	0
scalar IntersectionExampleScenario.node[16].nic.mac1609_4 	TimesIntoBackoff 	0
scalar IntersectionExampleScenario.node[16].nic.mac1609_4 	SlotsBackoff 	0
scalar IntersectionExampleScenario.node[16].nic.mac1609_4 	NumInternalContention 	0
scalar IntersectionExampleScenario.node[16].nic.mac1609_4 	totalBusyTime 	0
scalar IntersectionExampleScenario.node[16].veinsmobility 	startTime 	53.75
scalar IntersectionExampleScenario.node[16].veinsmobility 	totalTime 	57.75
scalar IntersectionExampleScenario.node[16].veinsmobility 	stopTime 	111.75
scalar IntersectionExampleScenario.node[16].veinsmobility 	minSpeed 	0
scalar IntersectionExampleScenario.node[16].veinsmobility 	maxSpeed 	15.64999961853
scalar IntersectionExampleScenario.node[16].veinsmobility 	totalDistance 	566.95021057129
scalar IntersectionExampleScenario.node[16].veinsmobility 	totalCO2Emission 	149.3099199081
scalar IntersectionExampleScenario.node[22].appl 	VehicleRemoved 	0
scalar IntersectionExampleScenario.node[22].appl 	ArrivedAtDest 	1
scalar IntersectionExampleScenario.node[22].appl 	IntersectionEnterTime 	65
scalar IntersectionExampleScenario.node[22].appl 	IntersectionExitTime 	96.11922824051
scalar IntersectionExampleScenario.node[22].appl 	NumberOfCollisions 	0
scalar IntersectionExampleScenario.node[22].nic.phy80211p 	busyTime 	0
scalar IntersectionExampleScenario.node[22].nic.mac1609_4 	ReceivedUnicastPackets 	0
scalar IntersectionExampleScenario.node[22].nic.mac1609_4 	ReceivedBroadcasts 	0
scalar IntersectionExampleScenario.node[22].nic.mac1609_4 	SentPackets 	0
scalar IntersectionExampleScenario.node[22].nic.mac1609_4 	SNIRLostPackets 	0
scalar IntersectionExampleScenario.node[22].nic.mac1609_4 	RXTXLostPackets 	0
scalar IntersectionExampleScenario.node[22].nic.mac1609_4 	TotalLostPackets 	0
scalar IntersectionExampleScenario.node[22].nic.mac1609_4 	DroppedPacketsInMac 	0
scalar IntersectionExampleScenario.node[22].nic.mac1609_4 	TooLittleTime 	0
scalar IntersectionExampleScenario.node[22].nic.mac1609_4 	TimesIntoBackoff 	0
scalar IntersectionExampleScenario.node[22].nic.mac1609_4 	SlotsBackoff 	0
scalar IntersectionExampleScenario.node[22].nic.mac1609_4 	NumInternalContention 	0
scalar IntersectionExampleScenario.node[22].nic.mac1609_4 	totalBusyTime 	0
scalar IntersectionExampleScenario.node[22].veinsmobility 	startTime 	65
scalar IntersectionExampleScenario.node[22].veinsmobility 	totalTime 	47.75
scalar IntersectionExampleScenario.node[22].veinsmobility 	stopTime 	113
scalar IntersectionExampleScenario.node[22].veinsmobility 	minSpeed 	3.289751291275
scalar IntersectionExampleScenario.node[22].veinsmobility 	maxSpeed 	15.64999961853
scalar IntersectionExampleScenario.node[22].veinsmobility 	totalDistance 	545.79214205389
scalar IntersectionExampleScenario.node[22].veinsmobility 	totalCO2Emission 	136.80546936151
scalar IntersectionExampleScenario.node[18].appl 	VehicleRemoved 	0
scalar IntersectionExampleScenario.node[18].appl 	ArrivedAtDest 	1
scalar IntersectionExampleScenario.node[18].appl 	IntersectionEnterTime 	55.25
scalar IntersectionExampleScenario.node[18].appl 	IntersectionExitTime 	97.852754610882
scalar IntersectionExampleScenario.node[18].appl 	NumberOfCollisions 	0
scalar IntersectionExampleScenario.node[18].nic.phy80211p 	busyTime 	0
scalar IntersectionExampleScenario.node[18].nic.mac1609_4 	ReceivedUnicastPackets 	0
scalar IntersectionExampleScenario.node[18].nic.mac1609_4 	ReceivedBroadcasts 	0
scalar IntersectionExampleScenario.node[18].nic.mac1609_4 	SentPackets 	0
scalar IntersectionExampleScenario.node[18].nic.mac1609_4 	SNIRLostPackets 	0
scalar IntersectionExampleScenario.node[18].nic.mac1609_4 	RXTXLostPackets 	0
scalar IntersectionExampleScenario.node[18].nic.mac1609_4 	TotalLostPackets 	0
scalar IntersectionExampleScenario.node[18].nic.mac1609_4 	DroppedPacketsInMac 	0
scalar IntersectionExampleScenario.node[18].nic.mac1609_4 	TooLittleTime 	0
scalar IntersectionExampleScenario.node[18].nic.mac1609_4 	TimesIntoBackoff 	0
scalar IntersectionExampleScenario.node[18].nic.mac1609_4 	SlotsBackoff 	0
scalar IntersectionExampleScenario.node[18].nic.mac1609_4 	NumInternalContention 	0
scalar IntersectionExampleScenario.node[18].nic.mac1609_4 	totalBusyTime 	0
scalar IntersectionExampleScenario.node[18].veinsmobility 	startTime 	55.25
scalar IntersectionExampleScenario.node[18].veinsmobility 	totalTime 	58.5
scalar IntersectionExampleScenario.node[18].veinsmobility 	stopTime 	114
scalar IntersectionExampleScenario.node[18].veinsmobility 	minSpeed 	1.0141266584396
scalar IntersectionExampleScenario.node[18].veinsmobility 	maxSpeed 	16.110355377197
scalar IntersectionExampleScenario.node[18].veinsmobility 	totalDistance 	570.57697591588
scalar IntersectionExampleScenario.node[18].veinsmobility 	totalCO2Emission 	163.09992610491
scalar IntersectionExampleScenario.node[26].appl 	VehicleRemoved 	0
scalar IntersectionExampleScenario.node[26].appl 	ArrivedAtDest 	1
scalar IntersectionExampleScenario.node[26].appl 	IntersectionEnterTime 	76.25
scalar IntersectionExampleScenario.node[26].appl 	IntersectionExitTime 	99.254111191578
scalar IntersectionExampleScenario.node[26].appl 	NumberOfCollisions 	0
scalar IntersectionExampleScenario.node[26].nic.phy80211p 	busyTime 	0
scalar IntersectionExampleScenario.node[26].nic.mac1609_4 	ReceivedUnicastPackets 	0
scalar IntersectionExampleScenario.node[26].nic.mac1609_4 	ReceivedBroadcasts 	0
scalar IntersectionExampleScenario.node[26].nic.mac1609_4 	SentPackets 	0
scalar IntersectionExampleScenario.node[26].nic.mac1609_4 	SNIRLostPackets 	0
scalar IntersectionExampleScenario.node[26].nic.mac1609_4 	RXTXLostPackets 	0
scalar IntersectionExampleScenario.node[26].nic.mac1609_4 	TotalLostPackets 	0
scalar IntersectionExampleScenario.node[26].nic.mac1609_4 	DroppedPacketsInMac 	0
scalar IntersectionExampleScenario.node[26].nic.mac1609_4 	TooLittleTime 	0
scalar IntersectionExampleScenario.node[26].nic.mac1609_4 	TimesIntoBackoff 	0
scalar IntersectionExampleScenario.node[26].nic.mac1609_4 	SlotsBackoff 	0
scalar IntersectionExampleScenario.node[26].nic.mac1609_4 	NumInternalContention 	0
scalar IntersectionExampleScenario.node[26].nic.mac1609_4 	totalBusyTime 	0
scalar IntersectionExampleScenario.node[26].veinsmobility 	startTime 	76.25
scalar IntersectionExampleScenario.node[26].veinsmobility 	totalTime 	39
scalar IntersectionExampleScenario.node[26].veinsmobility 	stopTime 	115.5
scalar IntersectionExampleScenario.node[26].veinsmobility 	minSpeed 	5.6500000953674
scalar IntersectionExampleScenario.node[26].veinsmobility 	maxSpeed 	15.64999961853
scalar IntersectionExampleScenario.node[26].veinsmobility 	totalDistance 	552.42685699463
scalar IntersectionExampleScenario.node[26].veinsmobility 	totalCO2Emission 	127.08330811335
scalar IntersectionExampleScenario.node[19].appl 	VehicleRemoved 	0
scalar IntersectionExampleScenario.node[19].appl 	ArrivedAtDest 	1
scalar IntersectionExampleScenario.node[19].appl 	IntersectionEnterTime 	58.25
scalar IntersectionExampleScenario.node[19].appl 	IntersectionExitTime 	100.54080852866
scalar IntersectionExampleScenario.node[19].appl 	NumberOfCollisions 	0
scalar IntersectionExampleScenario.node[19].nic.phy80211p 	busyTime 	0
scalar IntersectionExampleScenario.node[19].nic.mac1609_4 	ReceivedUnicastPackets 	0
scalar IntersectionExampleScenario.node[19].nic.mac1609_4 	ReceivedBroadcasts 	0
scalar IntersectionExampleScenario.node[19].nic.mac1609_4 	SentPackets 	0
scalar IntersectionExampleScenario.node[19].nic.mac1609_4 	SNIRLostPackets 	0
scalar IntersectionExampleScenario.node[19].nic.mac1609_4 	RXTXLostPackets 	0
scalar IntersectionExampleScenario.node[19].nic.mac1609_4 	TotalLostPackets 	0
scalar IntersectionExampleScenario.node[19].nic.mac1609_4 	DroppedPacketsInMac 	0
scalar IntersectionExampleScenario.node[19].nic.mac1609_4 	TooLittleTime 	0
scalar IntersectionExampleScenario.node[19].nic.mac1609_4 	TimesIntoBackoff 	0
scalar IntersectionExampleScenario.node[19].nic.mac1609_4 	SlotsBackoff 	0
scalar IntersectionExampleScenario.node[19].nic.mac1609_4 	NumInternalContention 	0
scalar IntersectionExampleScenario.node[19].nic.mac1609_4 	totalBusyTime 	0
scalar IntersectionExampleScenario.node[19].veinsmobility 	startTime 	58.25
scalar IntersectionExampleScenario.node[19].veinsmobility 	totalTime 	59
scalar IntersectionExampleScenario.node[19].veinsmobility 	stopTime 	117.5
scalar IntersectionExampleScenario.node[19].veinsmobility 	minSpeed 	0.97204720973969
scalar IntersectionExampleScenario.node[19].veinsmobility 	maxSpeed 	15.64999961853
scalar IntersectionExampleScenario.node[19].veinsmobility 	totalDistance 	570.45407597679
scalar IntersectionExampleScenario.node[19].veinsmobility 	totalCO2Emission 	152.185948871
scalar IntersectionExampleScenario.node[21].appl 	VehicleRemoved 	0
scalar IntersectionExampleScenario.node[21].appl 	ArrivedAtDest 	1
scalar IntersectionExampleScenario.node[21].appl 	IntersectionEnterTime 	64.75
scalar IntersectionExampleScenario.node[21].appl 	IntersectionExitTime 	102.28858430093
scalar IntersectionExampleScenario.node[21].appl 	NumberOfCollisions 	0
scalar IntersectionExampleScenario.node[21].nic.phy80211p 	busyTime 	0
scalar IntersectionExampleScenario.node[21].nic.mac1609_4 	ReceivedUnicastPackets 	0
scalar IntersectionExampleScenario.node[21].nic.mac1609_4 	ReceivedBroadcasts 	0
scalar IntersectionExampleScenario.node[21].nic.mac1609_4 	SentPackets 	0
scalar IntersectionExampleScenario.node[21].nic.mac1609_4 	SNIRLostPackets 	0
scalar IntersectionExampleScenario.node[21].nic.mac1609_4 	RXTXLostPackets 	0
scalar IntersectionExampleScenario.node[21].nic.mac1609_4 	TotalLostPackets 	0
scalar IntersectionExampleScenario.node[21].nic.mac1609_4 	DroppedPacketsInMac 	0
scalar IntersectionExampleScenario.node[21].nic.mac1609_4 	TooLittleTime 	0
scalar IntersectionExampleScenario.node[21].nic.mac1609_4 	TimesIntoBackoff 	0
scalar IntersectionExampleScenario.node[21].nic.mac1609_4 	SlotsBackoff 	0
scalar IntersectionExampleScenario.node[21].nic.mac1609_4 	NumInternalContention 	0
scalar IntersectionExampleScenario.node[21].nic.mac1609_4 	totalBusyTime 	0
scalar IntersectionExampleScenario.node[21].veinsmobility 	startTime 	64.75
scalar IntersectionExampleScenario.node[21].veinsmobility 	totalTime 	53.5
scalar IntersectionExampleScenario.node[21].veinsmobility 	stopTime 	118.5
scalar IntersectionExampleScenario.node[21].veinsmobility 	minSpeed 	1.0720537900925
scalar IntersectionExampleScenario.node[21].veinsmobility 	maxSpeed 	15.667592048645
scalar IntersectionExampleScenario.node[21].veinsmobility 	totalDistance 	549.82496217156
scalar IntersectionExampleScenario.node[21].veinsmobility 	totalCO2Emission 	151.27911027565
scalar IntersectionExampleScenario.node[25].appl 	VehicleRemoved 	0
scalar IntersectionExampleScenario.node[25].appl 	ArrivedAtDest 	1
scalar IntersectionExampleScenario.node[25].appl 	IntersectionEnterTime 	75.75
scalar IntersectionExampleScenario.node[25].appl 	IntersectionExitTime 	104.85090264917
scalar IntersectionExampleScenario.node[25].appl 	NumberOfCollisions 	0
scalar IntersectionExampleScenario.node[25].nic.phy80211p 	busyTime 	0
scalar IntersectionExampleScenario.node[25].nic.mac1609_4 	ReceivedUnicastPackets 	0
scalar IntersectionExampleScenario.node[25].nic.mac1609_4 	ReceivedBroadcasts 	0
scalar IntersectionExampleScenario.node[25].nic.mac1609_4 	SentPackets 	0
scalar IntersectionExampleScenario.node[25].nic.mac1609_4 	SNIRLostPackets 	0
scalar IntersectionExampleScenario.node[25].nic.mac1609_4 	RXTXLostPackets 	0
scalar IntersectionExampleScenario.node[25].nic.mac1609_4 	TotalLostPackets 	0
scalar IntersectionExampleScenario.node[25].nic.mac1609_4 	DroppedPacketsInMac 	0
scalar IntersectionExampleScenario.node[25].nic.mac1609_4 	TooLittleTime 	0
scalar IntersectionExampleScenario.node[25].nic.mac1609_4 	TimesIntoBackoff 	0
scalar IntersectionExampleScenario.node[25].nic.mac1609_4 	SlotsBackoff 	0
scalar IntersectionExampleScenario.node[25].nic.mac1609_4 	NumInternalContention 	0
scalar IntersectionExampleScenario.node[25].nic.mac1609_4 	totalBusyTime 	0
scalar IntersectionExampleScenario.node[25].veinsmobility 	startTime 	75.75
scalar IntersectionExampleScenario.node[25].veinsmobility 	totalTime 	45.75
scalar IntersectionExampleScenario.node[25].veinsmobility 	stopTime 	121.75
scalar IntersectionExampleScenario.node[25].veinsmobility 	minSpeed 	5.6500000953674
scalar IntersectionExampleScenario.node[25].veinsmobility 	maxSpeed 	15.64999961853
scalar IntersectionExampleScenario.node[25].veinsmobility 	totalDistance 	544.77120198767
scalar IntersectionExampleScenario.node[25].veinsmobility 	totalCO2Emission 	141.12380941942
scalar IntersectionExampleScenario.node[30].appl 	VehicleRemoved 	0
scalar IntersectionExampleScenario.node[30].appl 	ArrivedAtDest 	1
scalar IntersectionExampleScenario.node[30].appl 	IntersectionEnterTime 	81.75
scalar IntersectionExampleScenario.node[30].appl 	IntersectionExitTime 	105.11542298325
scalar IntersectionExampleScenario.node[30].appl 	NumberOfCollisions 	0
scalar IntersectionExampleScenario.node[30].nic.phy80211p 	busyTime 	0
scalar IntersectionExampleScenario.node[30].nic.mac1609_4 	ReceivedUnicastPackets 	0
scalar IntersectionExampleScenario.node[30].nic.mac1609_4 	ReceivedBroadcasts 	0
scalar IntersectionExampleScenario.node[30].nic.mac1609_4 	SentPackets 	0
scalar IntersectionExampleScenario.node[30].nic.mac1609_4 	SNIRLostPackets 	0
scalar IntersectionExampleScenario.node[30].nic.mac1609_4 	RXTXLostPackets 	0
scalar IntersectionExampleScenario.node[30].nic.mac1609_4 	TotalLostPackets 	0
scalar IntersectionExampleScenario.node[30].nic.mac1609_4 	DroppedPacketsInMac 	0
scalar IntersectionExampleScenario.node[30].nic.mac1609_4 	TooLittleTime 	0
scalar IntersectionExampleScenario.node[30].nic.mac1609_4 	TimesIntoBackoff 	0
scalar IntersectionExampleScenario.node[30].nic.mac1609_4 	SlotsBackoff 	0
scalar IntersectionExampleScenario.node[30].nic.mac1609_4 	NumInternalContention 	0
scalar IntersectionExampleScenario.node[30].nic.mac1609_4 	totalBusyTime 	0
scalar IntersectionExampleScenario.node[30].veinsmobility 	startTime 	81.75
scalar IntersectionExampleScenario.node[30].veinsmobility 	totalTime 	40
scalar IntersectionExampleScenario.node[30].veinsmobility 	stopTime 	122
scalar IntersectionExampleScenario.node[30].veinsmobility 	minSpeed 	5.6500000953674
scalar IntersectionExampleScenario.node[30].veinsmobility 	maxSpeed 	15.875
scalar IntersectionExampleScenario.node[30].veinsmobility 	totalDistance 	545.77105441475
scalar IntersectionExampleScenario.node[30].veinsmobility 	totalCO2Emission 	127.04257287175
scalar IntersectionExampleScenario.node[29].appl 	VehicleRemoved 	0
scalar IntersectionExampleScenario.node[29].appl 	ArrivedAtDest 	1
scalar IntersectionExampleScenario.node[29].appl 	IntersectionEnterTime 	80.75
scalar IntersectionExampleScenario.node[29].appl 	IntersectionExitTime 	106.79922826227
scalar IntersectionExampleScenario.node[29].appl 	NumberOfCollisions 	0
scalar IntersectionExampleScenario.node[29].nic.phy80211p 	busyTime 	0
scalar IntersectionExampleScenario.node[29].nic.mac1609_4 	ReceivedUnicastPackets 	0
scalar IntersectionExampleScenario.node[29].nic.mac1609_4 	ReceivedBroadcasts 	0
scalar IntersectionExampleScenario.node[29].nic.mac1609_4 	SentPackets 	0
scalar IntersectionExampleScenario.node[29].nic.mac1609_4 	SNIRLostPackets 	0
scalar IntersectionExampleScenario.node[29].nic.mac1609_4 	RXTXLostPackets 	0
scalar IntersectionExampleScenario.node[29].nic.mac1609_4 	TotalLostPackets 	0
scalar IntersectionExampleScenario.node[29].nic.mac1609_4 	DroppedPacketsInMac 	0
scalar IntersectionExampleScenario.node[29].nic.mac1609_4 	TooLittleTime 	0
scalar IntersectionExampleScenario.node[29].nic.mac1609_4 	TimesIntoBackoff 	0
scalar IntersectionExampleScenario.node[29].nic.mac1609_4 	SlotsBackoff 	0
scalar IntersectionExampleScenario.node[29].nic.mac1609_4 	NumInternalContention 	0
scalar IntersectionExampleScenario.node[29].nic.mac1609_4 	totalBusyTime 	0
scalar IntersectionExampleScenario.node[29].veinsmobility 	startTime 	80.75
scalar IntersectionExampleScenario.node[29].veinsmobility 	totalTime 	42.5
scalar IntersectionExampleScenario.node[29].veinsmobility 	stopTime 	123.5
scalar IntersectionExampleScenario.node[29].veinsmobility 	minSpeed 	5.6500000953674
scalar IntersectionExampleScenario.node[29].veinsmobility 	maxSpeed 	15.660584449768
scalar IntersectionExampleScenario.node[29].veinsmobility 	totalDistance 	519.34982225962
scalar IntersectionExampleScenario.node[29].veinsmobility 	totalCO2Emission 	130.93030617548
scalar IntersectionExampleScenario.node[27].appl 	VehicleRemoved 	0
scalar IntersectionExampleScenario.node[27].appl 	ArrivedAtDest 	1
scalar IntersectionExampleScenario.node[27].appl 	IntersectionEnterTime 	78.25
scalar IntersectionExampleScenario.node[27].appl 	IntersectionExitTime 	108.36539802811
scalar IntersectionExampleScenario.node[27].appl 	NumberOfCollisions 	0
scalar IntersectionExampleScenario.node[27].nic.phy80211p 	busyTime 	0
scalar IntersectionExampleScenario.node[27].nic.mac1609_4 	ReceivedUnicastPackets 	0
scalar IntersectionExampleScenario.node[27].nic.mac1609_4 	ReceivedBroadcasts 	0
scalar IntersectionExampleScenario.node[27].nic.mac1609_4 	SentPackets 	0
scalar IntersectionExampleScenario.node[27].nic.mac1609_4 	SNIRLostPackets 	0
scalar IntersectionExampleScenario.node[27].nic.mac1609_4 	RXTXLostPackets 	0
scalar IntersectionExampleScenario.node[27].nic.mac1609_4 	TotalLostPackets 	0
scalar IntersectionExampleScenario.node[27].nic.mac1609_4 	DroppedPacketsInMac 	0
scalar IntersectionExampleScenario.node[27].nic.mac1609_4 	TooLittleTime 	0
scalar IntersectionExampleScenario.node[27].nic.mac1609_4 	TimesIntoBackoff 	0
scalar IntersectionExampleScenario.node[27].nic.mac1609_4 	SlotsBackoff 	0
scalar IntersectionExampleScenario.node[27].nic.mac1609_4 	NumInternalContention 	0
scalar IntersectionExampleScenario.node[27].nic.mac1609_4 	totalBusyTime 	0
scalar IntersectionExampleScenario.node[27].veinsmobility 	startTime 	78.25
scalar IntersectionExampleScenario.node[27].veinsmobility 	totalTime 	46
scalar IntersectionExampleScenario.node[27].veinsmobility 	stopTime 	124.5
scalar IntersectionExampleScenario.node[27].veinsmobility 	minSpeed 	5.6500000953674
scalar IntersectionExampleScenario.node[27].veinsmobility 	maxSpeed 	15.513989448547
scalar IntersectionExampleScenario.node[27].veinsmobility 	totalDistance 	569.01608276367
scalar IntersectionExampleScenario.node[27].veinsmobility 	totalCO2Emission 	143.67393456914
scalar IntersectionExampleScenario.node[28].appl 	VehicleRemoved 	0
scalar IntersectionExampleScenario.node[28].appl 	ArrivedAtDest 	1
scalar IntersectionExampleScenario.node[28].appl 	IntersectionEnterTime 	78.5
scalar IntersectionExampleScenario.node[28].appl 	IntersectionExitTime 	110.75584337849
scalar IntersectionExampleScenario.node[28].appl 	NumberOfCollisions 	0
scalar IntersectionExampleScenario.node[28].nic.phy80211p 	busyTime 	0
scalar IntersectionExampleScenario.node[28].nic.mac1609_4 	ReceivedUnicastPackets 	0
scalar IntersectionExampleScenario.node[28].nic.mac1609_4 	ReceivedBroadcasts 	0
scalar IntersectionExampleScenario.node[28].nic.mac1609_4 	SentPackets 	0
scalar IntersectionExampleScenario.node[28].nic.mac1609_4 	SNIRLostPackets 	0
scalar IntersectionExampleScenario.node[28].nic.mac1609_4 	RXTXLostPackets 	0
scalar IntersectionExampleScenario.node[28].nic.mac1609_4 	TotalLostPackets 	0
scalar IntersectionExampleScenario.node[28].nic.mac1609_4 	DroppedPacketsInMac 	0
scalar IntersectionExampleScenario.node[28].nic.mac1609_4 	TooLittleTime 	0
scalar IntersectionExampleScenario.node[28].nic.mac1609_4 	TimesIntoBackoff 	0
scalar IntersectionExampleScenario.node[28].nic.mac1609_4 	SlotsBackoff 	0
scalar IntersectionExampleScenario.node[28].nic.mac1609_4 	NumInternalContention 	0
scalar IntersectionExampleScenario.node[28].nic.mac1609_4 	totalBusyTime 	0
scalar IntersectionExampleScenario.node[28].veinsmobility 	startTime 	78.5
scalar IntersectionExampleScenario.node[28].veinsmobility 	totalTime 	48.75
scalar IntersectionExampleScenario.node[28].veinsmobility 	stopTime 	127.5
scalar IntersectionExampleScenario.node[28].veinsmobility 	minSpeed 	5.6500000953674
scalar IntersectionExampleScenario.node[28].veinsmobility 	maxSpeed 	15.875
scalar IntersectionExampleScenario.node[28].veinsmobility 	totalDistance 	575.68278077074
scalar IntersectionExampleScenario.node[28].veinsmobility 	totalCO2Emission 	151.44720457397
scalar IntersectionExampleScenario.node[32].appl 	VehicleRemoved 	0
scalar IntersectionExampleScenario.node[32].appl 	ArrivedAtDest 	1
scalar IntersectionExampleScenario.node[32].appl 	IntersectionEnterTime 	83.25
scalar IntersectionExampleScenario.node[32].appl 	IntersectionExitTime 	112.33423250788
scalar IntersectionExampleScenario.node[32].appl 	NumberOfCollisions 	0
scalar IntersectionExampleScenario.node[32].nic.phy80211p 	busyTime 	0
scalar IntersectionExampleScenario.node[32].nic.mac1609_4 	ReceivedUnicastPackets 	0
scalar IntersectionExampleScenario.node[32].nic.mac1609_4 	ReceivedBroadcasts 	0
scalar IntersectionExampleScenario.node[32].nic.mac1609_4 	SentPackets 	0
scalar IntersectionExampleScenario.node[32].nic.mac1609_4 	SNIRLostPackets 	0
scalar IntersectionExampleScenario.node[32].nic.mac1609_4 	RXTXLostPackets 	0
scalar IntersectionExampleScenario.node[32].nic.mac1609_4 	TotalLostPackets 	0
scalar IntersectionExampleScenario.node[32].nic.mac1609_4 	DroppedPacketsInMac 	0
scalar IntersectionExampleScenario.node[32].nic.mac1609_4 	TooLittleTime 	0
scalar IntersectionExampleScenario.node[32].nic.mac1609_4 	TimesIntoBackoff 	0
scalar IntersectionExampleScenario.node[32].nic.mac1609_4 	SlotsBackoff 	0
scalar IntersectionExampleScenario.node[32].nic.mac1609_4 	NumInternalContention 	0
scalar IntersectionExampleScenario.node[32].nic.mac1609_4 	totalBusyTime 	0
scalar IntersectionExampleScenario.node[32].veinsmobility 	startTime 	83.25
scalar IntersectionExampleScenario.node[32].veinsmobility 	totalTime 	44.5
scalar IntersectionExampleScenario.node[32].veinsmobility 	stopTime 	128
scalar IntersectionExampleScenario.node[32].veinsmobility 	minSpeed 	5.6500000953674
scalar IntersectionExampleScenario.node[32].veinsmobility 	maxSpeed 	15.764259338379
scalar IntersectionExampleScenario.node[32].veinsmobility 	totalDistance 	574.12303161621
scalar IntersectionExampleScenario.node[32].veinsmobility 	totalCO2Emission 	137.72809731477
scalar IntersectionExampleScenario.node[33].appl 	VehicleRemoved 	0
scalar IntersectionExampleScenario.node[33].appl 	ArrivedAtDest 	1
scalar IntersectionExampleScenario.node[33].appl 	IntersectionEnterTime 	85
scalar IntersectionExampleScenario.node[33].appl 	IntersectionExitTime 	114.5791784719
scalar IntersectionExampleScenario.node[33].appl 	NumberOfCollisions 	0
scalar IntersectionExampleScenario.node[33].nic.phy80211p 	busyTime 	0
scalar IntersectionExampleScenario.node[33].nic.mac1609_4 	ReceivedUnicastPackets 	0
scalar IntersectionExampleScenario.node[33].nic.mac1609_4 	ReceivedBroadcasts 	0
scalar IntersectionExampleScenario.node[33].nic.mac1609_4 	SentPackets 	0
scalar IntersectionExampleScenario.node[33].nic.mac1609_4 	SNIRLostPackets 	0
scalar IntersectionExampleScenario.node[33].nic.mac1609_4 	RXTXLostPackets 	0
scalar IntersectionExampleScenario.node[33].nic.mac1609_4 	TotalLostPackets 	0
scalar IntersectionExampleScenario.node[33].nic.mac1609_4 	DroppedPacketsInMac 	0
scalar IntersectionExampleScenario.node[33].nic.mac1609_4 	TooLittleTime 	0
scalar IntersectionExampleScenario.node[33].nic.mac1609_4 	TimesIntoBackoff 	0
scalar IntersectionExampleScenario.node[33].nic.mac1609_4 	SlotsBackoff 	0
scalar IntersectionExampleScenario.node[33].nic.mac1609_4 	NumInternalContention 	0
scalar IntersectionExampleScenario.node[33].nic.mac1609_4 	totalBusyTime 	0
scalar IntersectionExampleScenario.node[33].veinsmobility 	startTime 	85
scalar IntersectionExampleScenario.node[33].veinsmobility 	totalTime 	46
scalar IntersectionExampleScenario.node[33].veinsmobility 	stopTime 	131.25
scalar IntersectionExampleScenario.node[33].veinsmobility 	minSpeed 	5.6500000953674
scalar IntersectionExampleScenario.node[33].veinsmobility 	maxSpeed 	15.875
scalar IntersectionExampleScenario.node[33].veinsmobility 	totalDistance 	573.51601122714
scalar IntersectionExampleScenario.node[33].veinsmobility 	totalCO2Emission 	138.39533575131
scalar IntersectionExampleScenario.node[38].appl 	VehicleRemoved 	0
scalar IntersectionExampleScenario.node[38].appl 	ArrivedAtDest 	1
scalar IntersectionExampleScenario.node[38].appl 	IntersectionEnterTime 	95
scalar IntersectionExampleScenario.node[38].appl 	IntersectionExitTime 	116.51297549496
scalar IntersectionExampleScenario.node[38].appl 	NumberOfCollisions 	0
scalar IntersectionExampleScenario.node[38].nic.phy80211p 	busyTime 	0
scalar IntersectionExampleScenario.node[38].nic.mac1609_4 	ReceivedUnicastPackets 	0
scalar IntersectionExampleScenario.node[38].nic.mac1609_4 	ReceivedBroadcasts 	0
scalar IntersectionExampleScenario.node[38].nic.mac1609_4 	SentPackets 	0
scalar IntersectionExampleScenario.node[38].nic.mac1609_4 	SNIRLostPackets 	0
scalar IntersectionExampleScenario.node[38].nic.mac1609_4 	RXTXLostPackets 	0
scalar IntersectionExampleScenario.node[38].nic.mac1609_4 	TotalLostPackets 	0
scalar IntersectionExampleScenario.node[38].nic.mac1609_4 	DroppedPacketsInMac 	0
scalar IntersectionExampleScenario.node[38].nic.mac1609_4 	TooLittleTime 	0
scalar IntersectionExampleScenario.node[38].nic.mac1609_4 	TimesIntoBackoff 	0
scalar IntersectionExampleScenario.node[38].nic.mac1609_4 	SlotsBackoff 	0
scalar IntersectionExampleScenario.node[38].nic.mac1609_4 	NumInternalContention 	0
scalar IntersectionExampleScenario.node[38].nic.mac1609_4 	totalBusyTime 	0
scalar IntersectionExampleScenario.node[38].veinsmobility 	startTime 	95
scalar IntersectionExampleScenario.node[38].veinsmobility 	totalTime 	37
scalar IntersectionExampleScenario.node[38].veinsmobility 	stopTime 	132.25
scalar IntersectionExampleScenario.node[38].veinsmobility 	minSpeed 	5.6500000953674
scalar IntersectionExampleScenario.node[38].veinsmobility 	maxSpeed 	16.125
scalar IntersectionExampleScenario.node[38].veinsmobility 	totalDistance 	522.8070526123
scalar IntersectionExampleScenario.node[38].veinsmobility 	totalCO2Emission 	119.01731632583
scalar IntersectionExampleScenario.node[36].appl 	VehicleRemoved 	0
scalar IntersectionExampleScenario.node[36].appl 	ArrivedAtDest 	1
scalar IntersectionExampleScenario.node[36].appl 	IntersectionEnterTime 	93.5
scalar IntersectionExampleScenario.node[36].appl 	IntersectionExitTime 	118.33131287163
scalar IntersectionExampleScenario.node[36].appl 	NumberOfCollisions 	0
scalar IntersectionExampleScenario.node[36].nic.phy80211p 	busyTime 	0
scalar IntersectionExampleScenario.node[36].nic.mac1609_4 	ReceivedUnicastPackets 	0
scalar IntersectionExampleScenario.node[36].nic.mac1609_4 	ReceivedBroadcasts 	0
scalar IntersectionExampleScenario.node[36].nic.mac1609_4 	SentPackets 	0
scalar IntersectionExampleScenario.node[36].nic.mac1609_4 	SNIRLostPackets 	0
scalar IntersectionExampleScenario.node[36].nic.mac1609_4 	RXTXLostPackets 	0
scalar IntersectionExampleScenario.node[36].nic.mac1609_4 	TotalLostPackets 	0
scalar IntersectionExampleScenario.node[36].nic.mac1609_4 	DroppedPacketsInMac 	0
scalar IntersectionExampleScenario.node[36].nic.mac1609_4 	TooLittleTime 	0
scalar IntersectionExampleScenario.node[36].nic.mac1609_4 	TimesIntoBackoff 	0
scalar IntersectionExampleScenario.node[36].nic.mac1609_4 	SlotsBackoff 	0
scalar IntersectionExampleScenario.node[36].nic.mac1609_4 	NumInternalContention 	0
scalar IntersectionExampleScenario.node[36].nic.mac1609_4 	totalBusyTime 	0
scalar IntersectionExampleScenario.node[36].veinsmobility 	startTime 	93.5
scalar IntersectionExampleScenario.node[36].veinsmobility 	totalTime 	40.5
scalar IntersectionExampleScenario.node[36].veinsmobility 	stopTime 	134.25
scalar IntersectionExampleScenario.node[36].veinsmobility 	minSpeed 	5.6500000953674
scalar IntersectionExampleScenario.node[36].veinsmobility 	maxSpeed 	15.826664924622
scalar IntersectionExampleScenario.node[36].veinsmobility 	totalDistance 	554.74534606934
scalar IntersectionExampleScenario.node[36].veinsmobility 	totalCO2Emission 	126.10308025661
scalar IntersectionExampleScenario.node[37].appl 	VehicleRemoved 	0
scalar IntersectionExampleScenario.node[37].appl 	ArrivedAtDest 	1
scalar IntersectionExampleScenario.node[37].appl 	IntersectionEnterTime 	94.75
scalar IntersectionExampleScenario.node[37].appl 	IntersectionExitTime 	120.79545754578
scalar IntersectionExampleScenario.node[37].appl 	NumberOfCollisions 	0
scalar IntersectionExampleScenario.node[37].nic.phy80211p 	busyTime 	0
scalar IntersectionExampleScenario.node[37].nic.mac1609_4 	ReceivedUnicastPackets 	0
scalar IntersectionExampleScenario.node[37].nic.mac1609_4 	ReceivedBroadcasts 	0
scalar IntersectionExampleScenario.node[37].nic.mac1609_4 	SentPackets 	0
scalar IntersectionExampleScenario.node[37].nic.mac1609_4 	SNIRLostPackets 	0
scalar IntersectionExampleScenario.node[37].nic.mac1609_4 	RXTXLostPackets 	0
scalar IntersectionExampleScenario.node[37].nic.mac1609_4 	TotalLostPackets 	0
scalar IntersectionExampleScenario.node[37].nic.mac1609_4 	DroppedPacketsInMac 	0
scalar IntersectionExampleScenario.node[37].nic.mac1609_4 	TooLittleTime 	0
scalar IntersectionExampleScenario.node[37].nic.mac1609_4 	TimesIntoBackoff 	0
scalar IntersectionExampleScenario.node[37].nic.mac1609_4 	SlotsBackoff 	0
scalar IntersectionExampleScenario.node[37].nic.mac1609_4 	NumInternalContention 	0
scalar IntersectionExampleScenario.node[37].nic.mac1609_4 	totalBusyTime 	0
scalar IntersectionExampleScenario.node[37].veinsmobility 	startTime 	94.75
scalar IntersectionExampleScenario.node[37].veinsmobility 	totalTime 	42.25
scalar IntersectionExampleScenario.node[37].veinsmobility 	stopTime 	137.25
scalar IntersectionExampleScenario.node[37].veinsmobility 	minSpeed 	5.6500000953674
scalar IntersectionExampleScenario.node[37].veinsmobility 	maxSpeed 	15.875
scalar IntersectionExampleScenario.node[37].veinsmobility 	totalDistance 	564.25706246334
scalar IntersectionExampleScenario.node[37].veinsmobility 	totalCO2Emission 	132.92506221242
scalar IntersectionExampleScenario.node[24].appl 	VehicleRemoved 	0
scalar IntersectionExampleScenario.node[24].appl 	ArrivedAtDest 	1
scalar IntersectionExampleScenario.node[24].appl 	IntersectionEnterTime 	68.25
scalar IntersectionExampleScenario.node[24].appl 	IntersectionExitTime 	125.35879960077
scalar IntersectionExampleScenario.node[24].appl 	NumberOfCollisions 	0
scalar IntersectionExampleScenario.node[24].nic.phy80211p 	busyTime 	0
scalar IntersectionExampleScenario.node[24].nic.mac1609_4 	ReceivedUnicastPackets 	0
scalar IntersectionExampleScenario.node[24].nic.mac1609_4 	ReceivedBroadcasts 	0
scalar IntersectionExampleScenario.node[24].nic.mac1609_4 	SentPackets 	0
scalar IntersectionExampleScenario.node[24].nic.mac1609_4 	SNIRLostPackets 	0
scalar IntersectionExampleScenario.node[24].nic.mac1609_4 	RXTXLostPackets 	0
scalar IntersectionExampleScenario.node[24].nic.mac1609_4 	TotalLostPackets 	0
scalar IntersectionExampleScenario.node[24].nic.mac1609_4 	DroppedPacketsInMac 	0
scalar IntersectionExampleScenario.node[24].nic.mac1609_4 	TooLittleTime 	0
scalar IntersectionExampleScenario.node[24].nic.mac1609_4 	TimesIntoBackoff 	0
scalar IntersectionExampleScenario.node[24].nic.mac1609_4 	SlotsBackoff 	0
scalar IntersectionExampleScenario.node[24].nic.mac1609_4 	NumInternalContention 	0
scalar IntersectionExampleScenario.node[24].nic.mac1609_4 	totalBusyTime 	0
scalar IntersectionExampleScenario.node[24].veinsmobility 	startTime 	68.25
scalar IntersectionExampleScenario.node[24].veinsmobility 	totalTime 	72
scalar IntersectionExampleScenario.node[24].veinsmobility 	stopTime 	140.5
scalar IntersectionExampleScenario.node[24].veinsmobility 	minSpeed 	0
scalar IntersectionExampleScenario.node[24].veinsmobility 	maxSpeed 	16.89999961853
scalar IntersectionExampleScenario.node[24].veinsmobility 	totalDistance 	552.88789367676
scalar IntersectionExampleScenario.node[24].veinsmobility 	totalCO2Emission 	173.74778606229
scalar IntersectionExampleScenario.node[35].appl 	VehicleRemoved 	0
scalar IntersectionExampleScenario.node[35].appl 	ArrivedAtDest 	1
scalar IntersectionExampleScenario.node[35].appl 	IntersectionEnterTime 	92
scalar IntersectionExampleScenario.node[35].appl 	IntersectionExitTime 	126.32729920192
scalar IntersectionExampleScenario.node[35].appl 	NumberOfCollisions 	0
scalar IntersectionExampleScenario.node[35].nic.phy80211p 	busyTime 	0
scalar IntersectionExampleScenario.node[35].nic.mac1609_4 	ReceivedUnicastPackets 	0
scalar IntersectionExampleScenario.node[35].nic.mac1609_4 	ReceivedBroadcasts 	0
scalar IntersectionExampleScenario.node[35].nic.mac1609_4 	SentPackets 	0
scalar IntersectionExampleScenario.node[35].nic.mac1609_4 	SNIRLostPackets 	0
scalar IntersectionExampleScenario.node[35].nic.mac1609_4 	RXTXLostPackets 	0
scalar IntersectionExampleScenario.node[35].nic.mac1609_4 	TotalLostPackets 	0
scalar IntersectionExampleScenario.node[35].nic.mac1609_4 	DroppedPacketsInMac 	0
scalar IntersectionExampleScenario.node[35].nic.mac1609_4 	TooLittleTime 	0
scalar IntersectionExampleScenario.node[35].nic.mac1609_4 	TimesIntoBackoff 	0
scalar IntersectionExampleScenario.node[35].nic.mac1609_4 	SlotsBackoff 	0
scalar IntersectionExampleScenario.node[35].nic.mac1609_4 	NumInternalContention 	0
scalar IntersectionExampleScenario.node[35].nic.mac1609_4 	totalBusyTime 	0
scalar IntersectionExampleScenario.node[35].veinsmobility 	startTime 	92
scalar IntersectionExampleScenario.node[35].veinsmobility 	totalTime 	50.25
scalar IntersectionExampleScenario.node[35].veinsmobility 	stopTime 	142.5
scalar IntersectionExampleScenario.node[35].veinsmobility 	minSpeed 	0
scalar IntersectionExampleScenario.node[35].veinsmobility 	maxSpeed 	16.5
scalar IntersectionExampleScenario.node[35].veinsmobility 	totalDistance 	543.30365387305
scalar IntersectionExampleScenario.node[35].veinsmobility 	totalCO2Emission 	144.47338736603
scalar IntersectionExampleScenario.node[39].appl 	VehicleRemoved 	0
scalar IntersectionExampleScenario.node[39].appl 	ArrivedAtDest 	1
scalar IntersectionExampleScenario.node[39].appl 	IntersectionEnterTime 	100.25
scalar IntersectionExampleScenario.node[39].appl 	IntersectionExitTime 	128.87083498738
scalar IntersectionExampleScenario.node[39].appl 	NumberOfCollisions 	0
scalar IntersectionExampleScenario.node[39].nic.phy80211p 	busyTime 	0
scalar IntersectionExampleScenario.node[39].nic.mac1609_4 	ReceivedUnicastPackets 	0
scalar IntersectionExampleScenario.node[39].nic.mac1609_4 	ReceivedBroadcasts 	0
scalar IntersectionExampleScenario.node[39].nic.mac1609_4 	SentPackets 	0
scalar IntersectionExampleScenario.node[39].nic.mac1609_4 	SNIRLostPackets 	0
scalar IntersectionExampleScenario.node[39].nic.mac1609_4 	RXTXLostPackets 	0
scalar IntersectionExampleScenario.node[39].nic.mac1609_4 	TotalLostPackets 	0
scalar IntersectionExampleScenario.node[39].nic.mac1609_4 	DroppedPacketsInMac 	0
scalar IntersectionExampleScenario.node[39].nic.mac1609_4 	TooLittleTime 	0
scalar IntersectionExampleScenario.node[39].nic.mac1609_4 	TimesIntoBackoff 	0
scalar IntersectionExampleScenario.node[39].nic.mac1609_4 	SlotsBackoff 	0
scalar IntersectionExampleScenario.node[39].nic.mac1609_4 	NumInternalContention 	0
scalar IntersectionExampleScenario.node[39].nic.mac1609_4 	totalBusyTime 	0
scalar IntersectionExampleScenario.node[39].veinsmobility 	startTime 	100.25
scalar IntersectionExampleScenario.node[39].veinsmobility 	totalTime 	45.25
scalar IntersectionExampleScenario.node[39].veinsmobility 	stopTime 	145.75
scalar IntersectionExampleScenario.node[39].veinsmobility 	minSpeed 	5.4705257415771
scalar IntersectionExampleScenario.node[39].veinsmobility 	maxSpeed 	15.875
scalar IntersectionExampleScenario.node[39].veinsmobility 	totalDistance 	546.59891940702
scalar IntersectionExampleScenario.node[39].veinsmobility 	totalCO2Emission 	135.01867613014
scalar IntersectionExampleScenario.node[47].appl 	VehicleRemoved 	0
scalar IntersectionExampleScenario.node[47].appl 	ArrivedAtDest 	1
scalar IntersectionExampleScenario.node[47].appl 	IntersectionEnterTime 	108.75
scalar IntersectionExampleScenario.node[47].appl 	IntersectionExitTime 	132.28442486183
scalar IntersectionExampleScenario.node[47].appl 	NumberOfCollisions 	0
scalar IntersectionExampleScenario.node[47].nic.phy80211p 	busyTime 	0
scalar IntersectionExampleScenario.node[47].nic.mac1609_4 	ReceivedUnicastPackets 	0
scalar IntersectionExampleScenario.node[47].nic.mac1609_4 	ReceivedBroadcasts 	0
scalar IntersectionExampleScenario.node[47].nic.mac1609_4 	SentPackets 	0
scalar IntersectionExampleScenario.node[47].nic.mac1609_4 	SNIRLostPackets 	0
scalar IntersectionExampleScenario.node[47].nic.mac1609_4 	RXTXLostPackets 	0
scalar IntersectionExampleScenario.node[47].nic.mac1609_4 	TotalLostPackets 	0
scalar IntersectionExampleScenario.node[47].nic.mac1609_4 	DroppedPacketsInMac 	0
scalar IntersectionExampleScenario.node[47].nic.mac1609_4 	TooLittleTime 	0
scalar IntersectionExampleScenario.node[47].nic.mac1609_4 	TimesIntoBackoff 	0
scalar IntersectionExampleScenario.node[47].nic.mac1609_4 	SlotsBackoff 	0
scalar IntersectionExampleScenario.node[47].nic.mac1609_4 	NumInternalContention 	0
scalar IntersectionExampleScenario.node[47].nic.mac1609_4 	totalBusyTime 	0
scalar IntersectionExampleScenario.node[47].veinsmobility 	startTime 	108.75
scalar IntersectionExampleScenario.node[47].veinsmobility 	totalTime 	39.75
scalar IntersectionExampleScenario.node[47].veinsmobility 	stopTime 	148.75
scalar IntersectionExampleScenario.node[47].veinsmobility 	minSpeed 	5.6500000953674
scalar IntersectionExampleScenario.node[47].veinsmobility 	maxSpeed 	15.809813499451
scalar IntersectionExampleScenario.node[47].veinsmobility 	totalDistance 	549.5181906049
scalar IntersectionExampleScenario.node[47].veinsmobility 	totalCO2Emission 	131.69772928086
scalar IntersectionExampleScenario.node[51].appl 	VehicleRemoved 	0
scalar IntersectionExampleScenario.node[51].appl 	ArrivedAtDest 	1
scalar IntersectionExampleScenario.node[51].appl 	IntersectionEnterTime 	116.75
scalar IntersectionExampleScenario.node[51].appl 	IntersectionExitTime 	140.28634719865
scalar IntersectionExampleScenario.node[51].appl 	NumberOfCollisions 	0
scalar IntersectionExampleScenario.node[51].nic.phy80211p 	busyTime 	0
scalar IntersectionExampleScenario.node[51].nic.mac1609_4 	ReceivedUnicastPackets 	0
scalar IntersectionExampleScenario.node[51].nic.mac1609_4 	ReceivedBroadcasts 	0
scalar IntersectionExampleScenario.node[51].nic.mac1609_4 	SentPackets 	0
scalar IntersectionExampleScenario.node[51].nic.mac1609_4 	SNIRLostPackets 	0
scalar IntersectionExampleScenario.node[51].nic.mac1609_4 	RXTXLostPackets 	0
scalar IntersectionExampleScenario.node[51].nic.mac1609_4 	TotalLostPackets 	0
scalar IntersectionExampleScenario.node[51].nic.mac1609_4 	DroppedPacketsInMac 	0
scalar IntersectionExampleScenario.node[51].nic.mac1609_4 	TooLittleTime 	0
scalar IntersectionExampleScenario.node[51].nic.mac1609_4 	TimesIntoBackoff 	0
scalar IntersectionExampleScenario.node[51].nic.mac1609_4 	SlotsBackoff 	0
scalar IntersectionExampleScenario.node[51].nic.mac1609_4 	NumInternalContention 	0
scalar IntersectionExampleScenario.node[51].nic.mac1609_4 	totalBusyTime 	0
scalar IntersectionExampleScenario.node[51].veinsmobility 	startTime 	116.75
scalar IntersectionExampleScenario.node[51].veinsmobility 	totalTime 	40.25
scalar IntersectionExampleScenario.node[51].veinsmobility 	stopTime 	157.25
scalar IntersectionExampleScenario.node[51].veinsmobility 	minSpeed 	5.6500000953674
scalar IntersectionExampleScenario.node[51].veinsmobility 	maxSpeed 	15.64999961853
scalar IntersectionExampleScenario.node[51].veinsmobility 	totalDistance 	545.93835825957
scalar IntersectionExampleScenario.node[51].veinsmobility 	totalCO2Emission 	126.67139425333
scalar IntersectionExampleScenario.node[53].appl 	VehicleRemoved 	0
scalar IntersectionExampleScenario.node[53].appl 	ArrivedAtDest 	1
scalar IntersectionExampleScenario.node[53].appl 	IntersectionEnterTime 	120.75
scalar IntersectionExampleScenario.node[53].appl 	IntersectionExitTime 	145.32684894645
scalar IntersectionExampleScenario.node[53].appl 	NumberOfCollisions 	0
scalar IntersectionExampleScenario.node[53].nic.phy80211p 	busyTime 	0
scalar IntersectionExampleScenario.node[53].nic.mac1609_4 	ReceivedUnicastPackets 	0
scalar IntersectionExampleScenario.node[53].nic.mac1609_4 	ReceivedBroadcasts 	0
scalar IntersectionExampleScenario.node[53].nic.mac1609_4 	SentPackets 	0
scalar IntersectionExampleScenario.node[53].nic.mac1609_4 	SNIRLostPackets 	0
scalar IntersectionExampleScenario.node[53].nic.mac1609_4 	RXTXLostPackets 	0
scalar IntersectionExampleScenario.node[53].nic.mac1609_4 	TotalLostPackets 	0
scalar IntersectionExampleScenario.node[53].nic.mac1609_4 	DroppedPacketsInMac 	0
scalar IntersectionExampleScenario.node[53].nic.mac1609_4 	TooLittleTime 	0
[...]
scalar IntersectionExampleScenario.node[678].veinsmobility 	totalCO2Emission 	80.599728043757
scalar IntersectionExampleScenario.node[679].appl 	VehicleRemoved 	0
scalar IntersectionExampleScenario.node[679].appl 	ArrivedAtDest 	0
scalar IntersectionExampleScenario.node[679].appl 	IntersectionEnterTime 	1767
scalar IntersectionExampleScenario.node[679].appl 	IntersectionExitTime 	1797.0967388115
scalar IntersectionExampleScenario.node[679].appl 	NumberOfCollisions 	0
scalar IntersectionExampleScenario.node[679].nic.phy80211p 	busyTime 	0
scalar IntersectionExampleScenario.node[679].nic.mac1609_4 	ReceivedUnicastPackets 	0
scalar IntersectionExampleScenario.node[679].nic.mac1609_4 	ReceivedBroadcasts 	0
scalar IntersectionExampleScenario.node[679].nic.mac1609_4 	SentPackets 	0
scalar IntersectionExampleScenario.node[679].nic.mac1609_4 	SNIRLostPackets 	0
scalar IntersectionExampleScenario.node[679].nic.mac1609_4 	RXTXLostPackets 	0
scalar IntersectionExampleScenario.node[679].nic.mac1609_4 	TotalLostPackets 	0
scalar IntersectionExampleScenario.node[679].nic.mac1609_4 	DroppedPacketsInMac 	0
scalar IntersectionExampleScenario.node[679].nic.mac1609_4 	TooLittleTime 	0
scalar IntersectionExampleScenario.node[679].nic.mac1609_4 	TimesIntoBackoff 	0
scalar IntersectionExampleScenario.node[679].nic.mac1609_4 	SlotsBackoff 	0
scalar IntersectionExampleScenario.node[679].nic.mac1609_4 	NumInternalContention 	0
scalar IntersectionExampleScenario.node[679].nic.mac1609_4 	totalBusyTime 	0
scalar IntersectionExampleScenario.node[679].veinsmobility 	startTime 	1767
scalar IntersectionExampleScenario.node[679].veinsmobility 	totalTime 	33
scalar IntersectionExampleScenario.node[679].veinsmobility 	stopTime 	1800
scalar IntersectionExampleScenario.node[679].veinsmobility 	minSpeed 	4.5483474731445
scalar IntersectionExampleScenario.node[679].veinsmobility 	maxSpeed 	14.39999961853
scalar IntersectionExampleScenario.node[679].veinsmobility 	totalDistance 	352.3703994751
scalar IntersectionExampleScenario.node[679].veinsmobility 	totalCO2Emission 	99.676488613112
scalar IntersectionExampleScenario.node[680].appl 	VehicleRemoved 	0
scalar IntersectionExampleScenario.node[680].appl 	ArrivedAtDest 	0
scalar IntersectionExampleScenario.node[680].appl 	IntersectionEnterTime 	1771.5
scalar IntersectionExampleScenario.node[680].appl 	IntersectionExitTime 	1799.3369995378
scalar IntersectionExampleScenario.node[680].appl 	NumberOfCollisions 	0
scalar IntersectionExampleScenario.node[680].nic.phy80211p 	busyTime 	0
scalar IntersectionExampleScenario.node[680].nic.mac1609_4 	ReceivedUnicastPackets 	0
scalar IntersectionExampleScenario.node[680].nic.mac1609_4 	ReceivedBroadcasts 	0
scalar IntersectionExampleScenario.node[680].nic.mac1609_4 	SentPackets 	0
scalar IntersectionExampleScenario.node[680].nic.mac1609_4 	SNIRLostPackets 	0
scalar IntersectionExampleScenario.node[680].nic.mac1609_4 	RXTXLostPackets 	0
scalar IntersectionExampleScenario.node[680].nic.mac1609_4 	TotalLostPackets 	0
scalar IntersectionExampleScenario.node[680].nic.mac1609_4 	DroppedPacketsInMac 	0
scalar IntersectionExampleScenario.node[680].nic.mac1609_4 	TooLittleTime 	0
scalar IntersectionExampleScenario.node[680].nic.mac1609_4 	TimesIntoBackoff 	0
scalar IntersectionExampleScenario.node[680].nic.mac1609_4 	SlotsBackoff 	0
scalar IntersectionExampleScenario.node[680].nic.mac1609_4 	NumInternalContention 	0
scalar IntersectionExampleScenario.node[680].nic.mac1609_4 	totalBusyTime 	0
scalar IntersectionExampleScenario.node[680].veinsmobility 	startTime 	1771.5
scalar IntersectionExampleScenario.node[680].veinsmobility 	totalTime 	28.5
scalar IntersectionExampleScenario.node[680].veinsmobility 	stopTime 	1800
scalar IntersectionExampleScenario.node[680].veinsmobility 	minSpeed 	5.6500000953674
scalar IntersectionExampleScenario.node[680].veinsmobility 	maxSpeed 	15.304850578308
scalar IntersectionExampleScenario.node[680].veinsmobility 	totalDistance 	310.0659363831
scalar IntersectionExampleScenario.node[680].veinsmobility 	totalCO2Emission 	80.366127480241
scalar IntersectionExampleScenario.node[681].appl 	VehicleRemoved 	0
scalar IntersectionExampleScenario.node[681].appl 	ArrivedAtDest 	0
scalar IntersectionExampleScenario.node[681].appl 	IntersectionEnterTime 	1779.25
scalar IntersectionExampleScenario.node[681].appl 	IntersectionExitTime 	-1
scalar IntersectionExampleScenario.node[681].appl 	NumberOfCollisions 	0
scalar IntersectionExampleScenario.node[681].nic.phy80211p 	busyTime 	0
scalar IntersectionExampleScenario.node[681].nic.mac1609_4 	ReceivedUnicastPackets 	0
scalar IntersectionExampleScenario.node[681].nic.mac1609_4 	ReceivedBroadcasts 	0
scalar IntersectionExampleScenario.node[681].nic.mac1609_4 	SentPackets 	0
scalar IntersectionExampleScenario.node[681].nic.mac1609_4 	SNIRLostPackets 	0
scalar IntersectionExampleScenario.node[681].nic.mac1609_4 	RXTXLostPackets 	0
scalar IntersectionExampleScenario.node[681].nic.mac1609_4 	TotalLostPackets 	0
scalar IntersectionExampleScenario.node[681].nic.mac1609_4 	DroppedPacketsInMac 	0
scalar IntersectionExampleScenario.node[681].nic.mac1609_4 	TooLittleTime 	0
scalar IntersectionExampleScenario.node[681].nic.mac1609_4 	TimesIntoBackoff 	0
scalar IntersectionExampleScenario.node[681].nic.mac1609_4 	SlotsBackoff 	0
scalar IntersectionExampleScenario.node[681].nic.mac1609_4 	NumInternalContention 	0
scalar IntersectionExampleScenario.node[681].nic.mac1609_4 	totalBusyTime 	0
scalar IntersectionExampleScenario.node[681].veinsmobility 	startTime 	1779.25
scalar IntersectionExampleScenario.node[681].veinsmobility 	totalTime 	20.75
scalar IntersectionExampleScenario.node[681].veinsmobility 	stopTime 	1800
scalar IntersectionExampleScenario.node[681].veinsmobility 	minSpeed 	5.1387777328491
scalar IntersectionExampleScenario.node[681].veinsmobility 	maxSpeed 	16.27499961853
scalar IntersectionExampleScenario.node[681].veinsmobility 	totalDistance 	258.77935791016
scalar IntersectionExampleScenario.node[681].veinsmobility 	totalCO2Emission 	61.968310848518
scalar IntersectionExampleScenario.node[682].appl 	VehicleRemoved 	0
scalar IntersectionExampleScenario.node[682].appl 	ArrivedAtDest 	0
scalar IntersectionExampleScenario.node[682].appl 	IntersectionEnterTime 	1779.75
scalar IntersectionExampleScenario.node[682].appl 	IntersectionExitTime 	-1
scalar IntersectionExampleScenario.node[682].appl 	NumberOfCollisions 	0
scalar IntersectionExampleScenario.node[682].nic.phy80211p 	busyTime 	0
scalar IntersectionExampleScenario.node[682].nic.mac1609_4 	ReceivedUnicastPackets 	0
scalar IntersectionExampleScenario.node[682].nic.mac1609_4 	ReceivedBroadcasts 	0
scalar IntersectionExampleScenario.node[682].nic.mac1609_4 	SentPackets 	0
scalar IntersectionExampleScenario.node[682].nic.mac1609_4 	SNIRLostPackets 	0
scalar IntersectionExampleScenario.node[682].nic.mac1609_4 	RXTXLostPackets 	0
scalar IntersectionExampleScenario.node[682].nic.mac1609_4 	TotalLostPackets 	0
scalar IntersectionExampleScenario.node[682].nic.mac1609_4 	DroppedPacketsInMac 	0
scalar IntersectionExampleScenario.node[682].nic.mac1609_4 	TooLittleTime 	0
scalar IntersectionExampleScenario.node[682].nic.mac1609_4 	TimesIntoBackoff 	0
scalar IntersectionExampleScenario.node[682].nic.mac1609_4 	SlotsBackoff 	0
scalar IntersectionExampleScenario.node[682].nic.mac1609_4 	NumInternalContention 	0
scalar IntersectionExampleScenario.node[682].nic.mac1609_4 	totalBusyTime 	0
scalar IntersectionExampleScenario.node[682].veinsmobility 	startTime 	1779.75
scalar IntersectionExampleScenario.node[682].veinsmobility 	totalTime 	20.25
scalar IntersectionExampleScenario.node[682].veinsmobility 	stopTime 	1800
scalar IntersectionExampleScenario.node[682].veinsmobility 	minSpeed 	3.6390271186829
scalar IntersectionExampleScenario.node[682].veinsmobility 	maxSpeed 	15.970916748047
scalar IntersectionExampleScenario.node[682].veinsmobility 	totalDistance 	264.61999511719
scalar IntersectionExampleScenario.node[682].veinsmobility 	totalCO2Emission 	64.704067340337
scalar IntersectionExampleScenario.node[683].appl 	VehicleRemoved 	0
scalar IntersectionExampleScenario.node[683].appl 	ArrivedAtDest 	0
scalar IntersectionExampleScenario.node[683].appl 	IntersectionEnterTime 	1782
scalar IntersectionExampleScenario.node[683].appl 	IntersectionExitTime 	-1
scalar IntersectionExampleScenario.node[683].appl 	NumberOfCollisions 	0
scalar IntersectionExampleScenario.node[683].nic.phy80211p 	busyTime 	0
scalar IntersectionExampleScenario.node[683].nic.mac1609_4 	ReceivedUnicastPackets 	0
scalar IntersectionExampleScenario.node[683].nic.mac1609_4 	ReceivedBroadcasts 	0
scalar IntersectionExampleScenario.node[683].nic.mac1609_4 	SentPackets 	0
scalar IntersectionExampleScenario.node[683].nic.mac1609_4 	SNIRLostPackets 	0
scalar IntersectionExampleScenario.node[683].nic.mac1609_4 	RXTXLostPackets 	0
scalar IntersectionExampleScenario.node[683].nic.mac1609_4 	TotalLostPackets 	0
scalar IntersectionExampleScenario.node[683].nic.mac1609_4 	DroppedPacketsInMac 	0
scalar IntersectionExampleScenario.node[683].nic.mac1609_4 	TooLittleTime 	0
scalar IntersectionExampleScenario.node[683].nic.mac1609_4 	TimesIntoBackoff 	0
scalar IntersectionExampleScenario.node[683].nic.mac1609_4 	SlotsBackoff 	0
scalar IntersectionExampleScenario.node[683].nic.mac1609_4 	NumInternalContention 	0
scalar IntersectionExampleScenario.node[683].nic.mac1609_4 	totalBusyTime 	0
scalar IntersectionExampleScenario.node[683].veinsmobility 	startTime 	1782
scalar IntersectionExampleScenario.node[683].veinsmobility 	totalTime 	18
scalar IntersectionExampleScenario.node[683].veinsmobility 	stopTime 	1800
scalar IntersectionExampleScenario.node[683].veinsmobility 	minSpeed 	5.6500000953674
scalar IntersectionExampleScenario.node[683].veinsmobility 	maxSpeed 	15.64999961853
scalar IntersectionExampleScenario.node[683].veinsmobility 	totalDistance 	243.82583618164
scalar IntersectionExampleScenario.node[683].veinsmobility 	totalCO2Emission 	58.018538539518
scalar IntersectionExampleScenario.node[684].appl 	VehicleRemoved 	0
scalar IntersectionExampleScenario.node[684].appl 	ArrivedAtDest 	0
scalar IntersectionExampleScenario.node[684].appl 	IntersectionEnterTime 	1785.25
scalar IntersectionExampleScenario.node[684].appl 	IntersectionExitTime 	-1
scalar IntersectionExampleScenario.node[684].appl 	NumberOfCollisions 	0
scalar IntersectionExampleScenario.node[684].nic.phy80211p 	busyTime 	0
scalar IntersectionExampleScenario.node[684].nic.mac1609_4 	ReceivedUnicastPackets 	0
scalar IntersectionExampleScenario.node[684].nic.mac1609_4 	ReceivedBroadcasts 	0
scalar IntersectionExampleScenario.node[684].nic.mac1609_4 	SentPackets 	0
scalar IntersectionExampleScenario.node[684].nic.mac1609_4 	SNIRLostPackets 	0
scalar IntersectionExampleScenario.node[684].nic.mac1609_4 	RXTXLostPackets 	0
scalar IntersectionExampleScenario.node[684].nic.mac1609_4 	TotalLostPackets 	0
scalar IntersectionExampleScenario.node[684].nic.mac1609_4 	DroppedPacketsInMac 	0
scalar IntersectionExampleScenario.node[684].nic.mac1609_4 	TooLittleTime 	0
scalar IntersectionExampleScenario.node[684].nic.mac1609_4 	TimesIntoBackoff 	0
scalar IntersectionExampleScenario.node[684].nic.mac1609_4 	SlotsBackoff 	0
scalar IntersectionExampleScenario.node[684].nic.mac1609_4 	NumInternalContention 	0
scalar IntersectionExampleScenario.node[684].nic.mac1609_4 	totalBusyTime 	0
scalar IntersectionExampleScenario.node[684].veinsmobility 	startTime 	1785.25
scalar IntersectionExampleScenario.node[684].veinsmobility 	totalTime 	14.75
scalar IntersectionExampleScenario.node[684].veinsmobility 	stopTime 	1800
scalar IntersectionExampleScenario.node[684].veinsmobility 	minSpeed 	5.6500000953674
scalar IntersectionExampleScenario.node[684].veinsmobility 	maxSpeed 	15.64999961853
scalar IntersectionExampleScenario.node[684].veinsmobility 	totalDistance 	204.64987945557
scalar IntersectionExampleScenario.node[684].veinsmobility 	totalCO2Emission 	55.102052575284
scalar IntersectionExampleScenario.node[685].appl 	VehicleRemoved 	0
scalar IntersectionExampleScenario.node[685].appl 	ArrivedAtDest 	0
scalar IntersectionExampleScenario.node[685].appl 	IntersectionEnterTime 	1786
scalar IntersectionExampleScenario.node[685].appl 	IntersectionExitTime 	-1
scalar IntersectionExampleScenario.node[685].appl 	NumberOfCollisions 	0
scalar IntersectionExampleScenario.node[685].nic.phy80211p 	busyTime 	0
scalar IntersectionExampleScenario.node[685].nic.mac1609_4 	ReceivedUnicastPackets 	0
scalar IntersectionExampleScenario.node[685].nic.mac1609_4 	ReceivedBroadcasts 	0
scalar IntersectionExampleScenario.node[685].nic.mac1609_4 	SentPackets 	0
scalar IntersectionExampleScenario.node[685].nic.mac1609_4 	SNIRLostPackets 	0
scalar IntersectionExampleScenario.node[685].nic.mac1609_4 	RXTXLostPackets 	0
scalar IntersectionExampleScenario.node[685].nic.mac1609_4 	TotalLostPackets 	0
scalar IntersectionExampleScenario.node[685].nic.mac1609_4 	DroppedPacketsInMac 	0
scalar IntersectionExampleScenario.node[685].nic.mac1609_4 	TooLittleTime 	0
scalar IntersectionExampleScenario.node[685].nic.mac1609_4 	TimesIntoBackoff 	0
scalar IntersectionExampleScenario.node[685].nic.mac1609_4 	SlotsBackoff 	0
scalar IntersectionExampleScenario.node[685].nic.mac1609_4 	NumInternalContention 	0
scalar IntersectionExampleScenario.node[685].nic.mac1609_4 	totalBusyTime 	0
scalar IntersectionExampleScenario.node[685].veinsmobility 	startTime 	1786
scalar IntersectionExampleScenario.node[685].veinsmobility 	totalTime 	14
scalar IntersectionExampleScenario.node[685].veinsmobility 	stopTime 	1800
scalar IntersectionExampleScenario.node[685].veinsmobility 	minSpeed 	5.6500000953674
scalar IntersectionExampleScenario.node[685].veinsmobility 	maxSpeed 	15.64999961853
scalar IntersectionExampleScenario.node[685].veinsmobility 	totalDistance 	195.09003448486
scalar IntersectionExampleScenario.node[685].veinsmobility 	totalCO2Emission 	54.432017051584
scalar IntersectionExampleScenario.node[686].appl 	VehicleRemoved 	0
scalar IntersectionExampleScenario.node[686].appl 	ArrivedAtDest 	0
scalar IntersectionExampleScenario.node[686].appl 	IntersectionEnterTime 	1788.75
scalar IntersectionExampleScenario.node[686].appl 	IntersectionExitTime 	-1
scalar IntersectionExampleScenario.node[686].appl 	NumberOfCollisions 	0
scalar IntersectionExampleScenario.node[686].nic.phy80211p 	busyTime 	0
scalar IntersectionExampleScenario.node[686].nic.mac1609_4 	ReceivedUnicastPackets 	0
scalar IntersectionExampleScenario.node[686].nic.mac1609_4 	ReceivedBroadcasts 	0
scalar IntersectionExampleScenario.node[686].nic.mac1609_4 	SentPackets 	0
scalar IntersectionExampleScenario.node[686].nic.mac1609_4 	SNIRLostPackets 	0
scalar IntersectionExampleScenario.node[686].nic.mac1609_4 	RXTXLostPackets 	0
scalar IntersectionExampleScenario.node[686].nic.mac1609_4 	TotalLostPackets 	0
scalar IntersectionExampleScenario.node[686].nic.mac1609_4 	DroppedPacketsInMac 	0
scalar IntersectionExampleScenario.node[686].nic.mac1609_4 	TooLittleTime 	0
scalar IntersectionExampleScenario.node[686].nic.mac1609_4 	TimesIntoBackoff 	0
scalar IntersectionExampleScenario.node[686].nic.mac1609_4 	SlotsBackoff 	0
scalar IntersectionExampleScenario.node[686].nic.mac1609_4 	NumInternalContention 	0
scalar IntersectionExampleScenario.node[686].nic.mac1609_4 	totalBusyTime 	0
scalar IntersectionExampleScenario.node[686].veinsmobility 	startTime 	1788.75
scalar IntersectionExampleScenario.node[686].veinsmobility 	totalTime 	11.25
scalar IntersectionExampleScenario.node[686].veinsmobility 	stopTime 	1800
scalar IntersectionExampleScenario.node[686].veinsmobility 	minSpeed 	5.6500000953674
scalar IntersectionExampleScenario.node[686].veinsmobility 	maxSpeed 	15.02499961853
scalar IntersectionExampleScenario.node[686].veinsmobility 	totalDistance 	146.55993652344
scalar IntersectionExampleScenario.node[686].veinsmobility 	totalCO2Emission 	44.636873962194
scalar IntersectionExampleScenario.node[687].appl 	VehicleRemoved 	0
scalar IntersectionExampleScenario.node[687].appl 	ArrivedAtDest 	0
scalar IntersectionExampleScenario.node[687].appl 	IntersectionEnterTime 	1793.25
scalar IntersectionExampleScenario.node[687].appl 	IntersectionExitTime 	-1
scalar IntersectionExampleScenario.node[687].appl 	NumberOfCollisions 	0
scalar IntersectionExampleScenario.node[687].nic.phy80211p 	busyTime 	0
scalar IntersectionExampleScenario.node[687].nic.mac1609_4 	ReceivedUnicastPackets 	0
scalar IntersectionExampleScenario.node[687].nic.mac1609_4 	ReceivedBroadcasts 	0
scalar IntersectionExampleScenario.node[687].nic.mac1609_4 	SentPackets 	0
scalar IntersectionExampleScenario.node[687].nic.mac1609_4 	SNIRLostPackets 	0
scalar IntersectionExampleScenario.node[687].nic.mac1609_4 	RXTXLostPackets 	0
scalar IntersectionExampleScenario.node[687].nic.mac1609_4 	TotalLostPackets 	0
scalar IntersectionExampleScenario.node[687].nic.mac1609_4 	DroppedPacketsInMac 	0
scalar IntersectionExampleScenario.node[687].nic.mac1609_4 	TooLittleTime 	0
scalar IntersectionExampleScenario.node[687].nic.mac1609_4 	TimesIntoBackoff 	0
scalar IntersectionExampleScenario.node[687].nic.mac1609_4 	SlotsBackoff 	0
scalar IntersectionExampleScenario.node[687].nic.mac1609_4 	NumInternalContention 	0
scalar IntersectionExampleScenario.node[687].nic.mac1609_4 	totalBusyTime 	0
scalar IntersectionExampleScenario.node[687].veinsmobility 	startTime 	1793.25
scalar IntersectionExampleScenario.node[687].veinsmobility 	totalTime 	6.75
scalar IntersectionExampleScenario.node[687].veinsmobility 	stopTime 	1800
scalar IntersectionExampleScenario.node[687].veinsmobility 	minSpeed 	5.6500000953674
scalar IntersectionExampleScenario.node[687].veinsmobility 	maxSpeed 	15.590835571289
scalar IntersectionExampleScenario.node[687].veinsmobility 	totalDistance 	82.425598144531
scalar IntersectionExampleScenario.node[687].veinsmobility 	totalCO2Emission 	38.641553963005
scalar IntersectionExampleScenario.node[688].appl 	VehicleRemoved 	0
scalar IntersectionExampleScenario.node[688].appl 	ArrivedAtDest 	0
scalar IntersectionExampleScenario.node[688].appl 	IntersectionEnterTime 	1796
scalar IntersectionExampleScenario.node[688].appl 	IntersectionExitTime 	-1
scalar IntersectionExampleScenario.node[688].appl 	NumberOfCollisions 	0
scalar IntersectionExampleScenario.node[688].nic.phy80211p 	busyTime 	0
scalar IntersectionExampleScenario.node[688].nic.mac1609_4 	ReceivedUnicastPackets 	0
scalar IntersectionExampleScenario.node[688].nic.mac1609_4 	ReceivedBroadcasts 	0
scalar IntersectionExampleScenario.node[688].nic.mac1609_4 	SentPackets 	0
scalar IntersectionExampleScenario.node[688].nic.mac1609_4 	SNIRLostPackets 	0
scalar IntersectionExampleScenario.node[688].nic.mac1609_4 	RXTXLostPackets 	0
scalar IntersectionExampleScenario.node[688].nic.mac1609_4 	TotalLostPackets 	0
scalar IntersectionExampleScenario.node[688].nic.mac1609_4 	DroppedPacketsInMac 	0
scalar IntersectionExampleScenario.node[688].nic.mac1609_4 	TooLittleTime 	0
scalar IntersectionExampleScenario.node[688].nic.mac1609_4 	TimesIntoBackoff 	0
scalar IntersectionExampleScenario.node[688].nic.mac1609_4 	SlotsBackoff 	0
scalar IntersectionExampleScenario.node[688].nic.mac1609_4 	NumInternalContention 	0
scalar IntersectionExampleScenario.node[688].nic.mac1609_4 	totalBusyTime 	0
scalar IntersectionExampleScenario.node[688].veinsmobility 	startTime 	1796
scalar IntersectionExampleScenario.node[688].veinsmobility 	totalTime 	4
scalar IntersectionExampleScenario.node[688].veinsmobility 	stopTime 	1800
scalar IntersectionExampleScenario.node[688].veinsmobility 	minSpeed 	5.6500000953674
scalar IntersectionExampleScenario.node[688].veinsmobility 	maxSpeed 	15.02499961853
scalar IntersectionExampleScenario.node[688].veinsmobility 	totalDistance 	40.100036621094
scalar IntersectionExampleScenario.node[688].veinsmobility 	totalCO2Emission 	30.650591168342
