file 26252883 1591387175                                        
version 2
run nodebug-43-20200605-15:55:24-11144
attr configname nodebug
attr datetime 20200605-15:55:24
attr experiment nodebug
attr inifile omnetpp.ini
attr iterationvars ""
attr iterationvars2 $repetition=43
attr measurement ""
attr network "\"org.car2x.veins.modules.application.ExtTraCIScenarioManagerLaunchd.IntersectionExampleScenario\""
attr processid 11144
attr repetition 43
attr replication #43
attr resultdir results
attr runnumber 43
attr seedset 43
param **.coreDebug false
param **.debug false
param *.**.nic.mac1609_4.bitrate 18Mbps
param *.**.nic.mac1609_4.txPower 20mW
param *.**.nic.mac1609_4.useServiceChannel false
param *.**.nic.phy80211p.analogueModels "xmldoc(\"config.xml\")"
param *.**.nic.phy80211p.decider "xmldoc(\"config.xml\")"
param *.**.nic.phy80211p.sensitivity -89dBm
param *.**.nic.phy80211p.thermalNoise -110dBm
param *.**.nic.phy80211p.usePropagationDelay true
param *.**.nic.phy80211p.useThermalNoise true
param *.annotations.draw false
param *.connectionManager.alpha 2.0
param *.connectionManager.carrierFrequency "5.890e9 Hz"
param *.connectionManager.pMax 20mW
param *.connectionManager.sat -89dBm
param *.connectionManager.sendDirect true
param *.manager.autoShutdown true
param *.manager.host "\"localhost\""
param *.manager.launchConfig "xmldoc(\"paramics.launchd.xml\")"
param *.manager.margin 25
param *.manager.moduleDisplayString "\"\""
param *.manager.moduleName "\"node\""
param *.manager.moduleType "\"org.car2x.veins.nodes.Car\""
param *.manager.port 9999
param *.manager.updateInterval 250ms
param *.node[*0].veinsmobility.accidentCount 0
param *.node[*0].veinsmobility.accidentDuration 30s
param *.node[*0].veinsmobility.accidentStart 75s
param *.node[*].appl.LiderSelectZoneRadio 55.0
param *.node[*].appl.ShareDataZoneRadio 110.0
param *.node[*].appl.TiempoSemaforo 30.0
param *.node[*].appl.beaconInterval 1s
param *.node[*].appl.beaconPriority 3
param *.node[*].appl.dataOnSch false
param *.node[*].appl.dataPriority 2
param *.node[*].appl.debug false
param *.node[*].appl.headerLength "256 bit"
param *.node[*].appl.maxOffset 0.005s
param *.node[*].appl.sendBeacons false
param *.node[*].appl.sendData true
param *.node[*].applType "\"Dummy\""
param *.node[*].mobilityType "\"TraCIMobility\""
param *.node[*].mobilityType.debug true
param *.node[*].veinsmobility.x 0
param *.node[*].veinsmobility.y 0
param *.node[*].veinsmobility.z 1.895
param *.node[*].veinsmobilityType "\"org.car2x.veins.modules.mobility.traci.TraCIMobility\""
param *.node[*].veinsmobilityType.debug true
param *.playgroundSizeX 8500m
param *.playgroundSizeY 8500m
param *.playgroundSizeZ 50m
param *.world.use2D false
param *.world.useTorus false

vector 54896  IntersectionExampleScenario.manager  vehiclesinsim  ETV
attr type  int
vector 54897  IntersectionExampleScenario.manager  realtime  ETV
attr type  int
attr unit  s
vector 54900  IntersectionExampleScenario.node[0].veinsmobility  posx  ETV
vector 54901  IntersectionExampleScenario.node[0].veinsmobility  posy  ETV
vector 54902  IntersectionExampleScenario.node[0].veinsmobility  speed  ETV
vector 54903  IntersectionExampleScenario.node[0].veinsmobility  acceleration  ETV
vector 54904  IntersectionExampleScenario.node[0].veinsmobility  co2emission  ETV
vector 54907  IntersectionExampleScenario.node[1].veinsmobility  posx  ETV
vector 54908  IntersectionExampleScenario.node[1].veinsmobility  posy  ETV
vector 54909  IntersectionExampleScenario.node[1].veinsmobility  speed  ETV
vector 54910  IntersectionExampleScenario.node[1].veinsmobility  acceleration  ETV
vector 54911  IntersectionExampleScenario.node[1].veinsmobility  co2emission  ETV
vector 54914  IntersectionExampleScenario.node[2].veinsmobility  posx  ETV
vector 54915  IntersectionExampleScenario.node[2].veinsmobility  posy  ETV
vector 54916  IntersectionExampleScenario.node[2].veinsmobility  speed  ETV
vector 54917  IntersectionExampleScenario.node[2].veinsmobility  acceleration  ETV
vector 54918  IntersectionExampleScenario.node[2].veinsmobility  co2emission  ETV
vector 54921  IntersectionExampleScenario.node[3].veinsmobility  posx  ETV
vector 54922  IntersectionExampleScenario.node[3].veinsmobility  posy  ETV
vector 54928  IntersectionExampleScenario.node[4].veinsmobility  posx  ETV
vector 54929  IntersectionExampleScenario.node[4].veinsmobility  posy  ETV
vector 54923  IntersectionExampleScenario.node[3].veinsmobility  speed  ETV
vector 54930  IntersectionExampleScenario.node[4].veinsmobility  speed  ETV
vector 54924  IntersectionExampleScenario.node[3].veinsmobility  acceleration  ETV
vector 54925  IntersectionExampleScenario.node[3].veinsmobility  co2emission  ETV
vector 54931  IntersectionExampleScenario.node[4].veinsmobility  acceleration  ETV
vector 54932  IntersectionExampleScenario.node[4].veinsmobility  co2emission  ETV
vector 54935  IntersectionExampleScenario.node[5].veinsmobility  posx  ETV
vector 54936  IntersectionExampleScenario.node[5].veinsmobility  posy  ETV
vector 54937  IntersectionExampleScenario.node[5].veinsmobility  speed  ETV
vector 54938  IntersectionExampleScenario.node[5].veinsmobility  acceleration  ETV
vector 54939  IntersectionExampleScenario.node[5].veinsmobility  co2emission  ETV
vector 54942  IntersectionExampleScenario.node[6].veinsmobility  posx  ETV
vector 54943  IntersectionExampleScenario.node[6].veinsmobility  posy  ETV
vector 54944  IntersectionExampleScenario.node[6].veinsmobility  speed  ETV
vector 54945  IntersectionExampleScenario.node[6].veinsmobility  acceleration  ETV
vector 54946  IntersectionExampleScenario.node[6].veinsmobility  co2emission  ETV
vector 54949  IntersectionExampleScenario.node[7].veinsmobility  posx  ETV
vector 54950  IntersectionExampleScenario.node[7].veinsmobility  posy  ETV
vector 54951  IntersectionExampleScenario.node[7].veinsmobility  speed  ETV
vector 54952  IntersectionExampleScenario.node[7].veinsmobility  acceleration  ETV
vector 54953  IntersectionExampleScenario.node[7].veinsmobility  co2emission  ETV
vector 54956  IntersectionExampleScenario.node[8].veinsmobility  posx  ETV
vector 54957  IntersectionExampleScenario.node[8].veinsmobility  posy  ETV
54904	6256 4913 16 1638 2.75 42.25 159 0.97223939240464 11.810082123732 507.90446564047 2852.4636117653
54903	11169 4593 16 1638 2.75 42.25 159 -3.3224430084229 2.5 38.680875778198 281.07750478256
54902	15762 4788 13 1638 2.5 42.25 160 5.6500000953674 15.875 2180.3963141441 31117.975677723
54901	20550 5154 10 1638 2.25 42.25 161 486.85000610352 732.1520690918 86462.362808228 47344177.968307
54900	25704 5153 10 1638 2.25 42.25 161 486.73587036133 785.82187652588 92162.609840393 54496323.186597
vector 54958  IntersectionExampleScenario.node[8].veinsmobility  speed  ETV
vector 54959  IntersectionExampleScenario.node[8].veinsmobility  acceleration  ETV
vector 54960  IntersectionExampleScenario.node[8].veinsmobility  co2emission  ETV
vector 54963  IntersectionExampleScenario.node[9].veinsmobility  posx  ETV
vector 54964  IntersectionExampleScenario.node[9].veinsmobility  posy  ETV
vector 54970  IntersectionExampleScenario.node[10].veinsmobility  posx  ETV
vector 54971  IntersectionExampleScenario.node[10].veinsmobility  posy  ETV
vector 54965  IntersectionExampleScenario.node[9].veinsmobility  speed  ETV
vector 54966  IntersectionExampleScenario.node[9].veinsmobility  acceleration  ETV
vector 54967  IntersectionExampleScenario.node[9].veinsmobility  co2emission  ETV
vector 54972  IntersectionExampleScenario.node[10].veinsmobility  speed  ETV
vector 54977  IntersectionExampleScenario.node[11].veinsmobility  posx  ETV
vector 54978  IntersectionExampleScenario.node[11].veinsmobility  posy  ETV
vector 54973  IntersectionExampleScenario.node[10].veinsmobility  acceleration  ETV
vector 54974  IntersectionExampleScenario.node[10].veinsmobility  co2emission  ETV
vector 54979  IntersectionExampleScenario.node[11].veinsmobility  speed  ETV
54911	32130 5019 89 1784 8.5 48 159 0.973 11.450879080643 484.57372513173 2513.8500617444
54910	37149 4743 89 1784 8.5 48 159 -3.6683731079102 2.5 37.32285118103 231.24968200727
54909	41892 4912 84 1784 8.25 48 160 5.6500000953674 15.375 2207.318980217 31303.568085038
54908	46804 5214 79 1784 8 48 161 483.14999389648 733.04319763184 86321.190093994 47250750.877904
54907	52018 5191 79 1784 8 48 161 184.17810058594 486.85000610352 64096.292419434 27309422.151476
vector 54980  IntersectionExampleScenario.node[11].veinsmobility  acceleration  ETV
vector 54981  IntersectionExampleScenario.node[11].veinsmobility  co2emission  ETV
vector 54984  IntersectionExampleScenario.node[12].veinsmobility  posx  ETV
vector 54985  IntersectionExampleScenario.node[12].veinsmobility  posy  ETV
vector 54991  IntersectionExampleScenario.node[13].veinsmobility  posx  ETV
vector 54992  IntersectionExampleScenario.node[13].veinsmobility  posy  ETV
vector 54986  IntersectionExampleScenario.node[12].veinsmobility  speed  ETV
vector 54987  IntersectionExampleScenario.node[12].veinsmobility  acceleration  ETV
vector 54988  IntersectionExampleScenario.node[12].veinsmobility  co2emission  ETV
vector 54993  IntersectionExampleScenario.node[13].veinsmobility  speed  ETV
vector 54998  IntersectionExampleScenario.node[14].veinsmobility  posx  ETV
vector 54999  IntersectionExampleScenario.node[14].veinsmobility  posy  ETV
vector 54994  IntersectionExampleScenario.node[13].veinsmobility  acceleration  ETV
vector 54995  IntersectionExampleScenario.node[13].veinsmobility  co2emission  ETV
vector 55000  IntersectionExampleScenario.node[14].veinsmobility  speed  ETV
vector 55001  IntersectionExampleScenario.node[14].veinsmobility  acceleration  ETV
vector 55002  IntersectionExampleScenario.node[14].veinsmobility  co2emission  ETV
54925	58581 4908 195 1944 12.5 51 155 0.973 11.90022389248 500.52554855579 2781.3659964429
54924	63489 4412 195 1944 12.5 51 155 -3.2846527099609 2.5 39.869146347046 241.68198894314
54923	67901 4791 184 1944 12.25 51 156 5.6500000953674 16 2213.0224189758 32437.108865515
54922	72692 5105 173 1944 12 51 157 235.76922607422 486.85000610352 68152.313781738 30531874.819582
54921	77797 5112 173 1944 12 51 157 483.14999389648 785.82187652588 89785.977348328 53106735.302482
54939	82909 5001 254 2063 13.75 52.75 157 0.973 11.450879080643 491.31033079064 2560.4386436549
54938	87910 4758 254 2063 13.75 52.75 157 -3.488338470459 2.5 38.511121749878 230.85149919728
54937	92668 4880 241 2063 13.5 52.75 158 5.6500000953674 15.453654289246 2208.3451242447 31802.772585695
54936	97548 5186 228 2063 13.25 52.75 159 483.14999389648 733.18809509277 85212.708068848 46622352.949395
54935	102734 5165 228 2063 13.25 52.75 159 184.17810058594 486.85000610352 63295.075927734 26973080.621905
vector 55005  IntersectionExampleScenario.node[15].veinsmobility  posx  ETV
vector 55006  IntersectionExampleScenario.node[15].veinsmobility  posy  ETV
vector 55007  IntersectionExampleScenario.node[15].veinsmobility  speed  ETV
vector 55012  IntersectionExampleScenario.node[16].veinsmobility  posx  ETV
vector 55013  IntersectionExampleScenario.node[16].veinsmobility  posy  ETV
vector 55008  IntersectionExampleScenario.node[15].veinsmobility  acceleration  ETV
vector 55009  IntersectionExampleScenario.node[15].veinsmobility  co2emission  ETV
54918	108454 5492 138 2237 10.75 55.25 179 0.97223939240464 11.810082123732 552.27475159457 3009.3638993661
54917	113946 5182 138 2237 10.75 55.25 179 -7.1630792617798 4 38.680875778198 476.87807198367
54916	119128 5368 131 2237 10.5 55.25 180 0 15.875 2184.2048678398 30861.61710822
54915	124496 5881 124 2237 10.25 55.25 181 184.17810058594 483.36395263672 73405.968200684 31603051.902026
54914	130377 5837 124 2237 10.25 55.25 181 486.85000610352 734.74661254883 96359.901626587 52282552.266416
vector 55014  IntersectionExampleScenario.node[16].veinsmobility  speed  ETV
vector 55015  IntersectionExampleScenario.node[16].veinsmobility  acceleration  ETV
vector 55016  IntersectionExampleScenario.node[16].veinsmobility  co2emission  ETV
vector 55019  IntersectionExampleScenario.node[17].veinsmobility  posx  ETV
vector 55020  IntersectionExampleScenario.node[17].veinsmobility  posy  ETV
vector 55021  IntersectionExampleScenario.node[17].veinsmobility  speed  ETV
vector 55022  IntersectionExampleScenario.node[17].veinsmobility  acceleration  ETV
vector 55023  IntersectionExampleScenario.node[17].veinsmobility  co2emission  ETV
54932	136862 5698 195 2482 12.5 58 183 0.973 11.648172402475 554.46354492292 2890.100436441
54931	142560 5283 195 2482 12.5 58 183 -4.5 2.5 38.341367721558 410.02802269027
54930	147843 5738 184 2482 12.25 58 184 0.84325170516968 15.64999961853 2263.0378881693 31371.227269581
54929	153581 6023 173 2482 12 58 185 164.94219970703 483.25979614258 73443.998840332 31280829.352448
54928	159604 6035 173 2482 12 58 185 486.85000610352 733.7271270752 98297.384216309 53212465.836295
54946	165639 5453 427 2738 17 61 177 0.973 11.36141391502 537.23533704724 2868.396599567
54945	171092 5365 427 2738 17 61 177 -3.1422996520996 2.5 37.32285118103 303.14500788276
54944	176457 5513 412 2738 16.75 61 178 5.6500000953674 15.25 2235.5252866745 29852.278375865
54943	181970 5838 397 2738 16.5 61 179 172.11639404297 483.16094970703 70759.60748291 29936387.921208
54942	187808 5860 397 2738 16.5 61 179 486.85000610352 734.35458374023 95545.496795654 51987467.289869
vector 55026  IntersectionExampleScenario.node[18].veinsmobility  posx  ETV
vector 55027  IntersectionExampleScenario.node[18].veinsmobility  posy  ETV
vector 55028  IntersectionExampleScenario.node[18].veinsmobility  speed  ETV
vector 55029  IntersectionExampleScenario.node[18].veinsmobility  acceleration  ETV
vector 55030  IntersectionExampleScenario.node[18].veinsmobility  co2emission  ETV
vector 55033  IntersectionExampleScenario.node[19].veinsmobility  posx  ETV
vector 55034  IntersectionExampleScenario.node[19].veinsmobility  posy  ETV
vector 55035  IntersectionExampleScenario.node[19].veinsmobility  speed  ETV
vector 55036  IntersectionExampleScenario.node[19].veinsmobility  acceleration  ETV
vector 55037  IntersectionExampleScenario.node[19].veinsmobility  co2emission  ETV
vector 55040  IntersectionExampleScenario.node[20].veinsmobility  posx  ETV
vector 55041  IntersectionExampleScenario.node[20].veinsmobility  posy  ETV
vector 55042  IntersectionExampleScenario.node[20].veinsmobility  speed  ETV
vector 55043  IntersectionExampleScenario.node[20].veinsmobility  acceleration  ETV
vector 55044  IntersectionExampleScenario.node[20].veinsmobility  co2emission  ETV
54953	194871 4804 1466 3878 36.5 74 151 0.973 12.099024792222 484.63932310442 2737.0470039873
54952	199675 4538 1466 3878 36.5 74 151 -3.3015289306641 2.5 40.038900375366 214.29066905543
54951	204213 4776 1455 3878 36.25 74 152 5.6500000953674 16.27499961853 2222.9441566467 33242.73370209
54950	208989 5016 1444 3878 36 74 153 184.17810058594 734.58689880371 68646.693695068 34883161.033745
54949	214005 5047 1444 3878 36 74 153 486.85000610352 486.85000610352 74488.050933838 36264508.051778
vector 55047  IntersectionExampleScenario.node[21].veinsmobility  posx  ETV
vector 55048  IntersectionExampleScenario.node[21].veinsmobility  posy  ETV
vector 55049  IntersectionExampleScenario.node[21].veinsmobility  speed  ETV
vector 55050  IntersectionExampleScenario.node[21].veinsmobility  acceleration  ETV
vector 55051  IntersectionExampleScenario.node[21].veinsmobility  co2emission  ETV
vector 55054  IntersectionExampleScenario.node[22].veinsmobility  posx  ETV
vector 55055  IntersectionExampleScenario.node[22].veinsmobility  posy  ETV
vector 55056  IntersectionExampleScenario.node[22].veinsmobility  speed  ETV
vector 55057  IntersectionExampleScenario.node[22].veinsmobility  acceleration  ETV
vector 55058  IntersectionExampleScenario.node[22].veinsmobility  co2emission  ETV
vector 55061  IntersectionExampleScenario.node[23].veinsmobility  posx  ETV
vector 55062  IntersectionExampleScenario.node[23].veinsmobility  posy  ETV
vector 55063  IntersectionExampleScenario.node[23].veinsmobility  speed  ETV
vector 55064  IntersectionExampleScenario.node[23].veinsmobility  acceleration  ETV
vector 55065  IntersectionExampleScenario.node[23].veinsmobility  co2emission  ETV
54960	220255 4822 1652 4468 42.75 80 150 0.96333723109819 12.099024792222 483.67957891873 2736.7556920032
54959	225077 4490 1652 4468 42.75 80 150 -3.4488143920898 2.5 40.208654403687 215.41582424072
54958	229567 4741 1645 4468 42.5 80 151 5.6500000953674 16.27499961853 2211.326382637 33126.279945099
54957	234308 4980 1638 4468 42.25 80 152 184.17810058594 731.68649291992 67977.49798584 34416512.171537
54956	239288 5016 1638 4468 42.25 80 152 486.85000610352 486.85000610352 74001.200927734 36027485.123335
vector 55068  IntersectionExampleScenario.node[24].veinsmobility  posx  ETV
vector 55069  IntersectionExampleScenario.node[24].veinsmobility  posy  ETV
vector 55070  IntersectionExampleScenario.node[24].veinsmobility  speed  ETV
vector 55071  IntersectionExampleScenario.node[24].veinsmobility  acceleration  ETV
vector 55072  IntersectionExampleScenario.node[24].veinsmobility  co2emission  ETV
vector 55075  IntersectionExampleScenario.node[25].veinsmobility  posx  ETV
vector 55076  IntersectionExampleScenario.node[25].veinsmobility  posy  ETV
vector 55077  IntersectionExampleScenario.node[25].veinsmobility  speed  ETV
vector 55078  IntersectionExampleScenario.node[25].veinsmobility  acceleration  ETV
vector 55079  IntersectionExampleScenario.node[25].veinsmobility  co2emission  ETV
54974	245106 4879 1773 5140 47.75 85.5 152 0.973 12.099024792222 509.65437851529 2931.6333282533
54973	249985 4421 1773 5140 47.75 85.5 152 -3.4178009033203 2.5 41.227170944214 260.25388798362
54972	254406 4745 1764 5140 47.5 85.5 153 5.6500000953674 16.27499961853 2208.285572052 32998.513095376
54971	259151 5075 1755 5140 47.25 85.5 154 483.12088012695 785.82187652588 88135.233253479 52175747.115485
54970	264226 5075 1755 5140 47.25 85.5 154 483.14999389648 733.19093322754 82459.177658081 45071112.617745
vector 55082  IntersectionExampleScenario.node[26].veinsmobility  posx  ETV
vector 55083  IntersectionExampleScenario.node[26].veinsmobility  posy  ETV
vector 55084  IntersectionExampleScenario.node[26].veinsmobility  speed  ETV
vector 55085  IntersectionExampleScenario.node[26].veinsmobility  acceleration  ETV
vector 55086  IntersectionExampleScenario.node[26].veinsmobility  co2emission  ETV
vector 55089  IntersectionExampleScenario.node[27].veinsmobility  posx  ETV
vector 55090  IntersectionExampleScenario.node[27].veinsmobility  posy  ETV
vector 55091  IntersectionExampleScenario.node[27].veinsmobility  speed  ETV
vector 55092  IntersectionExampleScenario.node[27].veinsmobility  acceleration  ETV
vector 55093  IntersectionExampleScenario.node[27].veinsmobility  co2emission  ETV
vector 55096  IntersectionExampleScenario.node[28].veinsmobility  posx  ETV
vector 55097  IntersectionExampleScenario.node[28].veinsmobility  posy  ETV
vector 55098  IntersectionExampleScenario.node[28].veinsmobility  speed  ETV
vector 55099  IntersectionExampleScenario.node[28].veinsmobility  acceleration  ETV
vector 55100  IntersectionExampleScenario.node[28].veinsmobility  co2emission  ETV
vector 55103  IntersectionExampleScenario.node[29].veinsmobility  posx  ETV
vector 55104  IntersectionExampleScenario.node[29].veinsmobility  posy  ETV
vector 55105  IntersectionExampleScenario.node[29].veinsmobility  speed  ETV
vector 55106  IntersectionExampleScenario.node[29].veinsmobility  acceleration  ETV
vector 55107  IntersectionExampleScenario.node[29].veinsmobility  co2emission  ETV
vector 55110  IntersectionExampleScenario.node[30].veinsmobility  posx  ETV
vector 55111  IntersectionExampleScenario.node[30].veinsmobility  posy  ETV
vector 55112  IntersectionExampleScenario.node[30].veinsmobility  speed  ETV
vector 55113  IntersectionExampleScenario.node[30].veinsmobility  acceleration  ETV
vector 55114  IntersectionExampleScenario.node[30].veinsmobility  co2emission  ETV
54981	271306 6814 1795 7483 48.25 106 232 0.97223939240464 11.648172402475 603.04062567383 2969.6681867027
54980	278120 6150 1795 7483 48.25 106 232 -7.1630792617798 4 38.680875778198 471.71272919869
54979	284270 6497 1784 7483 48 106 233 0 15.64999961853 2189.1655395031 31036.837682078
54978	290767 7735 1773 7483 47.75 106 234 483.14999389648 734.76512145996 121522.29032898 64223252.311254
54977	298502 7718 1773 7483 47.75 106 234 184.17810058594 486.85000610352 98634.640350342 43617624.58103
55002	306220 6655 1927 7533 50.75 106.5 224 0.973 11.450879080643 585.55464826173 2844.6288836787
55001	312875 6027 1927 7533 50.75 106.5 224 -8.4870567321777 4 37.15309715271 481.82449572734
55000	318902 6421 1910 7533 50.5 106.5 225 0 15.375 2210.4979660511 30840.215052249
54999	325323 7486 1893 7533 50.25 106.5 226 486.85000610352 486.85000610352 110028.10137939 53567181.828116
54998	332809 7470 1893 7533 50.25 106.5 226 236.75714111328 785.82187652588 116264.51628876 64036678.305706
54995	340279 7184 1893 7607 50.25 107.25 229 0.973 11.648172402475 605.58293497523 2980.4390659939
54994	347463 7065 1893 7607 50.25 107.25 229 -4.5 2.5 38.171613693237 445.31898026726
54993	354528 7243 1878 7607 50 107.25 230 0 15.64999961853 2281.9122982975 32001.329335091
54992	361771 7653 1863 7607 49.75 107.25 231 483.14999389648 483.14999389648 111607.64859009 53923234.735102
54991	369424 7532 1863 7607 49.75 107.25 231 166.078125 731.89248657227 103185.50646973 50648911.584163
55009	376956 6632 2237 7699 55.25 108.25 213 0.973 11.200708441096 571.1688972344 2688.8206051145
55008	383588 6829 2237 7699 55.25 108.25 213 -4.1327629089355 2.5000019073486 37.662351608276 358.76664942149
55007	390417 6976 2218 7699 55 108.25 214 0 15.19723033905 2210.1297197454 30264.939966057
55006	397393 7129 2199 7699 54.75 108.25 215 486.85000610352 486.85000610352 104672.75131226 50959929.615243
55005	404522 7103 2199 7699 54.75 108.25 215 237.80059814453 785.82187652588 111363.91043854 61849252.988513
vector 55117  IntersectionExampleScenario.node[31].veinsmobility  posx  ETV
vector 55118  IntersectionExampleScenario.node[31].veinsmobility  posy  ETV
vector 55119  IntersectionExampleScenario.node[31].veinsmobility  speed  ETV
vector 55120  IntersectionExampleScenario.node[31].veinsmobility  acceleration  ETV
vector 55121  IntersectionExampleScenario.node[31].veinsmobility  co2emission  ETV
55037	412026 5342 3245 7822 67 109.5 171 0.973 11.648172402475 540.82721472005 3032.9122538177
55036	417368 5075 3245 7822 67 109.5 171 -3.2279357910156 2.5 38.511121749878 312.24278574315
55035	422443 5429 3222 7822 66.75 109.5 172 5.6500000953674 15.64999961853 2204.5828738213 29963.217183923
55034	427872 5739 3199 7822 66.5 109.5 173 483.14999389648 732.0940246582 91900.819580078 49798742.538369
55033	433611 5719 3199 7822 66.5 109.5 173 184.17810058594 486.87957763672 69224.351898193 29483545.438072
55030	439330 5556 3094 7872 65.25 110 180 0.973 11.648172402475 546.12334681698 2955.046072354
55029	444886 5289 3094 7872 65.25 110 180 -2.5973205566406 2.5 38.850629806519 304.71239220895
55028	450175 5724 3073 7872 65 110 181 4.0027132034302 15.64999961853 2215.1409153938 29690.715193106
55027	455899 6042 3052 7872 64.75 110 182 235.58270263672 486.85000610352 80175.841339111 36339380.32563
55026	461941 6041 3052 7872 64.75 110 182 483.14999389648 785.82187652588 103253.67563629 60384192.310071
vector 55124  IntersectionExampleScenario.node[32].veinsmobility  posx  ETV
vector 55125  IntersectionExampleScenario.node[32].veinsmobility  posy  ETV
vector 55131  IntersectionExampleScenario.node[33].veinsmobility  posx  ETV
vector 55132  IntersectionExampleScenario.node[33].veinsmobility  posy  ETV
vector 55126  IntersectionExampleScenario.node[32].veinsmobility  speed  ETV
vector 55133  IntersectionExampleScenario.node[33].veinsmobility  speed  ETV
vector 55127  IntersectionExampleScenario.node[32].veinsmobility  acceleration  ETV
vector 55128  IntersectionExampleScenario.node[32].veinsmobility  co2emission  ETV
vector 55134  IntersectionExampleScenario.node[33].veinsmobility  acceleration  ETV
vector 55135  IntersectionExampleScenario.node[33].veinsmobility  co2emission  ETV
vector 55138  IntersectionExampleScenario.node[34].veinsmobility  posx  ETV
vector 55139  IntersectionExampleScenario.node[34].veinsmobility  posy  ETV
vector 55145  IntersectionExampleScenario.node[35].veinsmobility  posx  ETV
vector 55146  IntersectionExampleScenario.node[35].veinsmobility  posy  ETV
vector 55140  IntersectionExampleScenario.node[34].veinsmobility  speed  ETV
vector 55147  IntersectionExampleScenario.node[35].veinsmobility  speed  ETV
vector 55141  IntersectionExampleScenario.node[34].veinsmobility  acceleration  ETV
vector 55142  IntersectionExampleScenario.node[34].veinsmobility  co2emission  ETV
vector 55148  IntersectionExampleScenario.node[35].veinsmobility  acceleration  ETV
vector 55149  IntersectionExampleScenario.node[35].veinsmobility  co2emission  ETV
55051	469586 5039 4250 8616 78 116.25 154 0.973 11.648172402475 472.37063277033 2468.6221642102
55050	474625 4567 4250 8616 78 116.25 154 -3.3639030456543 2.5 38.511121749878 193.75141553485
55049	479192 4946 4225 8616 77.75 116.25 155 5.6500000953674 15.64999961853 2221.424943924 32483.242225398
55048	484138 5214 4200 8616 77.5 116.25 156 483.14999389648 483.14999389648 75371.399047852 36415690.989939
55047	489352 5186 4200 8616 77.5 116.25 156 184.17810058594 734.3458404541 70055.718399048 35615242.966205
55065	494538 4986 4468 8833 80 118 153 0.973 11.648172402475 474.925234236 2481.352005492
55064	499524 4570 4468 8833 80 118 153 -3.4320068359375 2.5 39.020376205444 194.78216897432
55063	504094 4912 4439 8833 79.75 118 154 5.6500000953674 15.64999961853 2217.0800733566 32596.395712939
55062	509006 5187 4410 8833 79.5 118 155 486.85000610352 486.85000610352 75461.750946045 36738553.908664
55061	514193 5168 4410 8833 79.5 118 155 236.82946777344 785.82187652588 80855.384376526 46285427.655232
55058	519361 5280 4329 8988 78.75 119.25 163 0.973 11.810082123732 527.50776998947 2913.6907056704
55057	524641 5160 4329 8988 78.75 119.25 163 -3.487211227417 2.5 39.869146347046 286.54294211031
55056	529801 5175 4302 8988 78.5 119.25 164 5.6500000953674 15.875 2281.0191912651 33209.573987731
55055	534976 5522 4275 8988 78.25 119.25 165 235.65832519531 483.14999389648 71649.110778809 32044870.349396
55054	540498 5493 4275 8988 78.25 119.25 165 161.1796875 483.14999389648 64090.991333008 26977410.463281
vector 55152  IntersectionExampleScenario.node[36].veinsmobility  posx  ETV
vector 55153  IntersectionExampleScenario.node[36].veinsmobility  posy  ETV
vector 55154  IntersectionExampleScenario.node[36].veinsmobility  speed  ETV
vector 55155  IntersectionExampleScenario.node[36].veinsmobility  acceleration  ETV
vector 55156  IntersectionExampleScenario.node[36].veinsmobility  co2emission  ETV
55072	546392 5245 4849 9540 83.25 123.75 163 0.97223939240464 11.810082123732 522.87448402349 2994.6725823014
55071	551637 5089 4849 9540 83.25 123.75 163 -3.4450759887695 2.5 38.680875778198 290.40518199324
55070	556726 5183 4818 9540 83 123.75 164 5.6500000953674 15.875 2245.7039346695 32124.425531157
55069	561909 5533 4787 9540 82.75 123.75 165 235.25872802734 483.14999389648 71482.076751709 31914517.922182
55068	567442 5516 4787 9540 82.75 123.75 165 170.23516845703 483.14999389648 64720.119110107 27339846.996311
vector 55159  IntersectionExampleScenario.node[37].veinsmobility  posx  ETV
vector 55160  IntersectionExampleScenario.node[37].veinsmobility  posy  ETV
vector 55161  IntersectionExampleScenario.node[37].veinsmobility  speed  ETV
vector 55162  IntersectionExampleScenario.node[37].veinsmobility  acceleration  ETV
vector 55163  IntersectionExampleScenario.node[37].veinsmobility  co2emission  ETV
55093	573359 5123 6178 10445 93.75 132 154 0.973 11.648172402475 470.76336111104 2462.8829942015
55092	578482 4697 6178 10445 93.75 132 154 -3.1964302062988 2.5 38.341367721558 191.50694040174
55091	583179 5029 6151 10445 93.5 132 155 5.6500000953674 15.64999961853 2217.1332235336 32350.133803948
55090	588208 5295 6123 10445 93.25 132 156 483.14999389648 483.14999389648 75371.399047852 36415690.989939
55089	593503 5264 6123 10445 93.25 132 156 184.17810058594 733.26556396484 69982.629058838 35533807.588377
vector 55166  IntersectionExampleScenario.node[38].veinsmobility  posx  ETV
vector 55167  IntersectionExampleScenario.node[38].veinsmobility  posy  ETV
vector 55168  IntersectionExampleScenario.node[38].veinsmobility  speed  ETV
55100	598999 5423 6308 10773 95 135.5 163 0.973 11.54047740176 478.09515231247 2363.3825201445
55099	604422 4923 6308 10773 95 135.5 163 -4.5 2.5 37.15309715271 186.38912810639
55098	609345 5350 6281 10773 94.75 135.5 164 5.6500000953674 15.5 2305.1056909561 32975.688922498
55097	614695 5620 6254 10773 94.5 135.5 165 483.14999389648 483.14999389648 79719.74899292 38516596.239358
55096	620315 5591 6254 10773 94.5 135.5 165 162.90466308594 734.01350402832 72410.563400269 36487430.896177
vector 55173  IntersectionExampleScenario.node[39].veinsmobility  posx  ETV
vector 55174  IntersectionExampleScenario.node[39].veinsmobility  posy  ETV
vector 55169  IntersectionExampleScenario.node[38].veinsmobility  acceleration  ETV
vector 55170  IntersectionExampleScenario.node[38].veinsmobility  co2emission  ETV
vector 55175  IntersectionExampleScenario.node[39].veinsmobility  speed  ETV
vector 55176  IntersectionExampleScenario.node[39].veinsmobility  acceleration  ETV
vector 55177  IntersectionExampleScenario.node[39].veinsmobility  co2emission  ETV
54967	626476 10461 1764 11384 47.5 142 379 0.973 11.200708441096 723.8004905075 2848.2259866801
54966	636937 9229 1764 11384 47.5 142 379 -7.2451009750366 4 35.455564498901 453.54028067034
54965	646166 9636 1755 11384 47.25 142 380 0 15.02499961853 2213.8000292778 30144.781914339
54964	655802 12764 1748 11384 47 142 381 184.17810058594 734.14907836914 176170.33540344 85808346.191018
54963	668566 12798 1748 11384 47 142 381 486.85000610352 486.85000610352 185489.85232544 90305735.736781
vector 55180  IntersectionExampleScenario.node[40].veinsmobility  posx  ETV
vector 55181  IntersectionExampleScenario.node[40].veinsmobility  posy  ETV
vector 55182  IntersectionExampleScenario.node[40].veinsmobility  speed  ETV
54988	681596 10764 1878 11477 50 143 373 0.973 11.36141391502 734.96431858109 2953.0748412373
54987	692360 9954 1878 11477 50 143 373 -4.5 2.5 37.15309715271 425.83201826211
54986	702314 10206 1863 11477 49.75 143 374 0 15.25 2246.6480174735 30599.35498941
54985	712520 12560 1850 11477 49.5 143 375 168.58435058594 483.14999389648 161955.28305054 72448076.268368
54984	725080 12602 1850 11477 49.5 143 375 486.85000610352 733.15992736816 190904.1313324 98365522.828665
vector 55183  IntersectionExampleScenario.node[40].veinsmobility  acceleration  ETV
vector 55184  IntersectionExampleScenario.node[40].veinsmobility  co2emission  ETV
vector 55187  IntersectionExampleScenario.node[41].veinsmobility  posx  ETV
vector 55188  IntersectionExampleScenario.node[41].veinsmobility  posy  ETV
vector 55194  IntersectionExampleScenario.node[42].veinsmobility  posx  ETV
vector 55195  IntersectionExampleScenario.node[42].veinsmobility  posy  ETV
vector 55189  IntersectionExampleScenario.node[41].veinsmobility  speed  ETV
vector 55201  IntersectionExampleScenario.node[43].veinsmobility  posx  ETV
vector 55202  IntersectionExampleScenario.node[43].veinsmobility  posy  ETV
vector 55190  IntersectionExampleScenario.node[41].veinsmobility  acceleration  ETV
vector 55191  IntersectionExampleScenario.node[41].veinsmobility  co2emission  ETV
vector 55196  IntersectionExampleScenario.node[42].veinsmobility  speed  ETV
55016	738638 10436 2279 11644 55.75 144.75 357 0.973 11.36141391502 728.50566838211 3010.3775220385
55015	749074 10721 2279 11644 55.75 144.75 357 -3.8327181339264 2.5000004768372 40.038900375366 342.85128455264
55014	759795 10514 2258 11644 55.5 144.75 358 0 15.723292350769 2178.1362602217 29005.476055751
55013	770309 12052 2237 11644 55.25 144.75 359 184.17810058594 483.14999389648 154246.01315308 68319418.445771
55012	782361 12093 2237 11644 55.25 144.75 359 486.85000610352 731.54321289062 182668.20573425 94052901.736852
vector 55197  IntersectionExampleScenario.node[42].veinsmobility  acceleration  ETV
vector 55198  IntersectionExampleScenario.node[42].veinsmobility  co2emission  ETV
vector 55203  IntersectionExampleScenario.node[43].veinsmobility  speed  ETV
vector 55204  IntersectionExampleScenario.node[43].veinsmobility  acceleration  ETV
vector 55205  IntersectionExampleScenario.node[43].veinsmobility  co2emission  ETV
55023	794870 10936 2367 11847 56.75 146.5 360 0.97223939240464 11.648172402475 739.98206481149 3040.8024098974
55022	805806 11261 2367 11847 56.75 146.5 360 -4.5 2.5 38.680875778198 413.14664257656
55021	817067 11259 2344 11847 56.5 146.5 361 0 15.64999961853 2310.6393140648 30535.340679686
55020	828326 12169 2321 11847 56.25 146.5 362 162.00311279297 734.37020874023 160392.88537598 75757027.126644
55019	840495 12210 2321 11847 56.25 146.5 362 486.85000610352 486.85000610352 176239.70220947 85802300.096364
vector 55208  IntersectionExampleScenario.node[44].veinsmobility  posx  ETV
vector 55209  IntersectionExampleScenario.node[44].veinsmobility  posy  ETV
vector 55210  IntersectionExampleScenario.node[44].veinsmobility  speed  ETV
vector 55211  IntersectionExampleScenario.node[44].veinsmobility  acceleration  ETV
vector 55212  IntersectionExampleScenario.node[44].veinsmobility  co2emission  ETV
55079	853106 8212 5008 12248 84.5 149.75 262 0.973 11.200708441096 613.04295076691 2774.0767406215
55078	861318 8558 5008 12248 84.5 149.75 262 -3.9811928272247 2.5 36.134572982788 331.1447877589
55077	869876 8651 4975 12248 84.25 149.75 263 0 15.02499961853 2215.3567776233 28068.837968004
55076	878527 8948 4942 12248 84 149.75 264 184.17810058594 486.87585449219 109338.64962769 47218908.003996
55075	887475 8984 4942 12248 84 149.75 264 234.96911621094 486.85000610352 119692.5604248 55454742.56826
55114	896459 6248 7102 12496 102.25 151.75 199 0.973 11.810082123732 588.68324980172 3258.0016884413
55113	902707 6410 7102 12496 102.25 151.75 199 -3.9492111206055 2.5 38.511121749878 415.70863341685
55112	909117 6550 7073 12496 102 151.75 200 2.4834094047546 15.875 2193.431409359 28287.929950072
55111	915667 6907 7044 12496 101.75 151.75 201 184.17810058594 483.15023803711 80997.61328125 34422426.383318
55110	922574 6925 7044 12496 101.75 151.75 201 486.85000610352 735.3484954834 106163.42044067 57101433.953217
55142	929499 5252 8320 12743 114 153.75 160 0.973 11.249104956514 509.23431574733 3003.8197114074
55141	934751 5033 8320 12743 114 153.75 160 -3.0275917053223 2.5 35.964826583862 243.55232780532
55140	939784 5356 8287 12743 113.75 153.75 161 5.6500000953674 15.092821121216 2213.0638217926 30929.039370618
55139	945140 5562 8254 12743 113.5 153.75 162 184.17810058594 732.27113342285 72658.145324707 36830930.196896
55138	950702 5614 8254 12743 113.5 153.75 162 486.85000610352 486.85000610352 78869.70098877 38397714.407765
vector 55215  IntersectionExampleScenario.node[45].veinsmobility  posx  ETV
vector 55216  IntersectionExampleScenario.node[45].veinsmobility  posy  ETV
vector 55217  IntersectionExampleScenario.node[45].veinsmobility  speed  ETV
vector 55218  IntersectionExampleScenario.node[45].veinsmobility  acceleration  ETV
vector 55219  IntersectionExampleScenario.node[45].veinsmobility  co2emission  ETV
55156	956717 5154 9168 13301 120.75 158.5 152 0.973 11.200708441096 481.86598158188 2385.9844397476
55155	961871 4796 9168 13301 120.75 158.5 152 -3.3295631408691 2.5 40.038900375366 187.52531420027
55154	966667 5110 9137 13301 120.5 158.5 153 5.6500000953674 15.912077903748 2225.1528568268 33084.874528208
55153	971777 5334 9106 13301 120.25 158.5 154 184.17810058594 735.26246643066 69131.272491455 35146738.751158
55152	977111 5361 9106 13301 120.25 158.5 154 486.85000610352 486.85000610352 74974.900939941 36501530.980221
vector 55222  IntersectionExampleScenario.node[46].veinsmobility  posx  ETV
vector 55223  IntersectionExampleScenario.node[46].veinsmobility  posy  ETV
vector 55224  IntersectionExampleScenario.node[46].veinsmobility  speed  ETV
vector 55225  IntersectionExampleScenario.node[46].veinsmobility  acceleration  ETV
vector 55226  IntersectionExampleScenario.node[46].veinsmobility  co2emission  ETV
vector 55229  IntersectionExampleScenario.node[47].veinsmobility  posx  ETV
vector 55230  IntersectionExampleScenario.node[47].veinsmobility  posy  ETV
vector 55231  IntersectionExampleScenario.node[47].veinsmobility  speed  ETV
vector 55232  IntersectionExampleScenario.node[47].veinsmobility  acceleration  ETV
vector 55233  IntersectionExampleScenario.node[47].veinsmobility  co2emission  ETV
vector 55236  IntersectionExampleScenario.node[48].veinsmobility  posx  ETV
vector 55237  IntersectionExampleScenario.node[48].veinsmobility  posy  ETV
vector 55238  IntersectionExampleScenario.node[48].veinsmobility  speed  ETV
vector 55239  IntersectionExampleScenario.node[48].veinsmobility  acceleration  ETV
vector 55240  IntersectionExampleScenario.node[48].veinsmobility  co2emission  ETV
vector 55243  IntersectionExampleScenario.node[49].veinsmobility  posx  ETV
vector 55244  IntersectionExampleScenario.node[49].veinsmobility  posy  ETV
vector 55245  IntersectionExampleScenario.node[49].veinsmobility  speed  ETV
vector 55246  IntersectionExampleScenario.node[49].veinsmobility  acceleration  ETV
vector 55247  IntersectionExampleScenario.node[49].veinsmobility  co2emission  ETV
vector 55250  IntersectionExampleScenario.node[50].veinsmobility  posx  ETV
vector 55251  IntersectionExampleScenario.node[50].veinsmobility  posy  ETV
vector 55252  IntersectionExampleScenario.node[50].veinsmobility  speed  ETV
55044	984308 11064 3671 14553 71.75 170.75 397 0.973 11.36141391502 743.66067797725 2936.8069090991
55043	995372 9846 3671 14553 71.75 170.75 397 -7.5428676605225 4 35.964826583862 470.1543617146
55042	1005218 10104 3648 14553 71.5 170.75 398 0 15.25 2176.5250477791 29657.73482194
55041	1015322 13620 3625 14553 71.25 170.75 399 486.63604736328 785.82187652588 211143.81905365 114037601.57736
55040	1028942 13553 3625 14553 71.25 170.75 399 236.85040283203 483.14999389648 184286.18173218 86327750.59502
vector 55253  IntersectionExampleScenario.node[50].veinsmobility  acceleration  ETV
vector 55254  IntersectionExampleScenario.node[50].veinsmobility  co2emission  ETV
55086	1042664 10103 5705 14747 89.75 172.5 332 0.973 11.648172402475 703.35216642496 3053.6203049775
55085	1052767 10322 5705 14747 89.75 172.5 332 -3.9583599567413 2.5 39.869146347046 336.54479418739
55084	1063089 10312 5670 14747 89.5 172.5 333 0 15.64999961853 2189.9423178807 29313.272877681
55083	1073401 11472 5635 14747 89.25 172.5 334 486.74234008789 785.82187652588 180090.36806488 99190390.200715
55082	1084873 11483 5635 14747 89.25 172.5 334 235.43334960938 483.14999389648 153273.38238525 71472253.333904
vector 55257  IntersectionExampleScenario.node[51].veinsmobility  posx  ETV
vector 55258  IntersectionExampleScenario.node[51].veinsmobility  posy  ETV
vector 55259  IntersectionExampleScenario.node[51].veinsmobility  speed  ETV
vector 55260  IntersectionExampleScenario.node[51].veinsmobility  acceleration  ETV
vector 55261  IntersectionExampleScenario.node[51].veinsmobility  co2emission  ETV
55107	1096757 9482 6852 15025 100 175 301 0.973 11.450879080643 653.33355774112 2863.4552712094
55106	1106239 9931 6852 15025 100 175 301 -3.8211789131165 2.5 37.32285118103 324.27228686739
55105	1116170 9921 6823 15025 99.75 175 302 0 15.375 2210.4069755608 28501.951249317
55104	1126091 10469 6794 15025 99.5 175 303 483.14999389648 785.82187652588 165444.84941864 92383883.954474
55103	1136560 10482 6794 15025 99.5 175 303 483.14999389648 733.50444030762 154961.09127808 80437748.932557
55135	1147042 8099 8080 15054 112 175.25 254 0.973 12.099024792222 639.64120800353 3263.8292222254
55134	1155141 8317 8080 15054 112 175.25 254 -3.7942607402802 2.5000019073486 41.736440658569 348.13840177957
55133	1163458 8607 8051 15054 111.75 175.25 255 0 16.27499961853 2215.7715000845 30175.46027116
55132	1172065 8861 8022 15054 111.5 175.25 256 237.39660644531 785.82187652588 134193.19174957 74348384.725147
55131	1180926 8895 8022 15054 111.5 175.25 256 483.14999389648 483.14999389648 123686.3984375 59759082.650156
vector 55264  IntersectionExampleScenario.node[52].veinsmobility  posx  ETV
vector 55265  IntersectionExampleScenario.node[52].veinsmobility  posy  ETV
vector 55266  IntersectionExampleScenario.node[52].veinsmobility  speed  ETV
vector 55271  IntersectionExampleScenario.node[53].veinsmobility  posx  ETV
vector 55272  IntersectionExampleScenario.node[53].veinsmobility  posy  ETV
vector 55267  IntersectionExampleScenario.node[52].veinsmobility  acceleration  ETV
vector 55268  IntersectionExampleScenario.node[52].veinsmobility  co2emission  ETV
vector 55273  IntersectionExampleScenario.node[53].veinsmobility  speed  ETV
vector 55274  IntersectionExampleScenario.node[53].veinsmobility  acceleration  ETV
vector 55275  IntersectionExampleScenario.node[53].veinsmobility  co2emission  ETV
vector 55278  IntersectionExampleScenario.node[54].veinsmobility  posx  ETV
vector 55279  IntersectionExampleScenario.node[54].veinsmobility  posy  ETV
vector 55280  IntersectionExampleScenario.node[54].veinsmobility  speed  ETV
vector 55281  IntersectionExampleScenario.node[54].veinsmobility  acceleration  ETV
vector 55282  IntersectionExampleScenario.node[54].veinsmobility  co2emission  ETV
55177	1191024 5640 10846 15489 136.25 179 172 0.973 11.810082123732 560.1113811642 3293.4894228991
55176	1196664 5506 10846 15489 136.25 179 172 -3.2763442993164 2.5 38.850629806519 357.8214051179
55175	1202170 5715 10821 15489 136 179 173 5.6500000953674 15.875 2178.856385231 29287.698265177
55174	1207885 6079 10796 15489 135.75 179 174 486.82083129883 785.82187652588 99420.512123108 58551156.680252
55173	1213964 6066 10796 15489 135.75 179 174 238.01208496094 483.14999389648 76023.125762939 34153924.439257
vector 55285  IntersectionExampleScenario.node[55].veinsmobility  posx  ETV
vector 55286  IntersectionExampleScenario.node[55].veinsmobility  posy  ETV
vector 55287  IntersectionExampleScenario.node[55].veinsmobility  speed  ETV
vector 55288  IntersectionExampleScenario.node[55].veinsmobility  acceleration  ETV
vector 55289  IntersectionExampleScenario.node[55].veinsmobility  co2emission  ETV
vector 55292  IntersectionExampleScenario.node[56].veinsmobility  posx  ETV
vector 55293  IntersectionExampleScenario.node[56].veinsmobility  posy  ETV
vector 55294  IntersectionExampleScenario.node[56].veinsmobility  speed  ETV
vector 55295  IntersectionExampleScenario.node[56].veinsmobility  acceleration  ETV
vector 55296  IntersectionExampleScenario.node[56].veinsmobility  co2emission  ETV
55205	1220832 5251 11702 16064 145.25 184.25 157 0.973 11.200708441096 474.25759226798 2569.8035839469
55204	1226083 4974 11702 16064 145.25 184.25 157 -3.1978912353516 2.5 35.455564498901 260.74516234245
55203	1231057 5224 11673 16064 145 184.25 158 5.6500000953674 15.02499961853 2061.5551710129 27994.158289771
55202	1236281 5554 11644 16064 144.75 184.25 159 486.84436035156 753.92188262939 88960.796180725 51113874.648832
55201	1241835 5543 11644 16064 144.75 184.25 159 234.89581298828 483.14999389648 68112.580993652 30139319.66236
55184	1247378 5781 11500 16267 143.25 186 172 0.973 10.47384764672 527.6849240745 2560.1704645056
55183	1253159 5639 11500 16267 143.25 186 172 -4.5 2.5 37.15309715271 336.17279944723
55182	1258798 5778 11477 16267 143 186 173 5.6500000953674 14.997190475464 2181.299697876 29260.717561505
55181	1264576 6081 11453 16267 142.75 186 174 486.67803955078 785.82187652588 100726.69100952 60305979.428526
55180	1270657 6084 11453 16267 142.75 186 174 237.74792480469 483.14999389648 75787.066772461 33966749.537196
vector 55299  IntersectionExampleScenario.node[57].veinsmobility  posx  ETV
vector 55300  IntersectionExampleScenario.node[57].veinsmobility  posy  ETV
vector 55306  IntersectionExampleScenario.node[58].veinsmobility  posx  ETV
vector 55307  IntersectionExampleScenario.node[58].veinsmobility  posy  ETV
vector 55301  IntersectionExampleScenario.node[57].veinsmobility  speed  ETV
vector 55302  IntersectionExampleScenario.node[57].veinsmobility  acceleration  ETV
vector 55303  IntersectionExampleScenario.node[57].veinsmobility  co2emission  ETV
vector 55308  IntersectionExampleScenario.node[58].veinsmobility  speed  ETV
vector 55309  IntersectionExampleScenario.node[58].veinsmobility  acceleration  ETV
vector 55310  IntersectionExampleScenario.node[58].veinsmobility  co2emission  ETV
55191	1277543 5873 11644 16550 144.75 188.25 175 0.973 10.916047529558 513.98339707813 2396.5747661787
55190	1283416 5894 11644 16550 144.75 188.25 175 -4.5 2.5 37.832105636597 228.32795002017
55189	1289310 5866 11617 16550 144.5 188.25 176 5.6500000953674 15.144116401672 2272.7316002846 30919.706807988
55188	1295176 6187 11592 16550 144.25 188.25 177 486.85000610352 806.11563110352 103202.65395355 62407908.230865
55187	1301363 6193 11592 16550 144.25 188.25 177 235.15118408203 483.14999389648 77148.694152832 34610154.996962
vector 55313  IntersectionExampleScenario.node[59].veinsmobility  posx  ETV
vector 55314  IntersectionExampleScenario.node[59].veinsmobility  posy  ETV
vector 55315  IntersectionExampleScenario.node[59].veinsmobility  speed  ETV
vector 55316  IntersectionExampleScenario.node[59].veinsmobility  acceleration  ETV
vector 55317  IntersectionExampleScenario.node[59].veinsmobility  co2emission  ETV
vector 55320  IntersectionExampleScenario.node[60].veinsmobility  posx  ETV
vector 55321  IntersectionExampleScenario.node[60].veinsmobility  posy  ETV
vector 55322  IntersectionExampleScenario.node[60].veinsmobility  speed  ETV
vector 55327  IntersectionExampleScenario.node[61].veinsmobility  posx  ETV
vector 55328  IntersectionExampleScenario.node[61].veinsmobility  posy  ETV
vector 55323  IntersectionExampleScenario.node[60].veinsmobility  acceleration  ETV
vector 55324  IntersectionExampleScenario.node[60].veinsmobility  co2emission  ETV
vector 55329  IntersectionExampleScenario.node[61].veinsmobility  speed  ETV
vector 55330  IntersectionExampleScenario.node[61].veinsmobility  acceleration  ETV
vector 55331  IntersectionExampleScenario.node[61].veinsmobility  co2emission  ETV
55121	1308759 9609 7772 17043 109 191.75 332 0.973 12.099024792222 722.41698469741 3377.9861431635
55120	1318368 8707 7772 17043 109 191.75 332 -7.2880620956421 4 41.057416915894 494.45701127998
55119	1327075 8944 7747 17043 108.75 191.75 333 0 16.27499961853 2218.9884848595 32605.99015696
55118	1336019 11614 7722 17043 108.5 191.75 334 483.14999389648 483.14999389648 161372.09796143 77966928.145126
55117	1347633 11584 7722 17043 108.5 191.75 334 184.17810058594 734.86402893066 153953.68760681 75055713.233777
55128	1359217 9410 8080 17080 112 192 321 0.973 11.648172402475 700.27546251252 3120.4567565084
55127	1368627 8301 8080 17080 112 192 321 -7.2641291618347 4 39.699392318726 482.33411505105
55126	1376928 8760 8051 17080 111.75 192 322 0 15.64999961853 2215.4797743559 31978.756143289
55125	1385688 11239 8022 17080 111.5 192 323 486.85000610352 486.85000610352 157252.55197144 76558405.887087
55124	1396927 11228 8022 17080 111.5 192 323 235.89569091797 785.82187652588 164582.40216827 88001955.296335
55149	1408155 9847 8320 17376 114 194 321 0.973 11.990504229548 695.73581357815 3184.6019655183
55148	1418002 10073 8320 17376 114 194 321 -3.6957786083221 2.5000009536743 39.869146347046 365.69341719827
55147	1428075 10009 8287 17376 113.75 194 322 0 16.125 2221.229016982 31044.329154522
55146	1438084 11247 8254 17376 113.5 194 323 483.14999389648 483.14999389648 156057.44802856 75399155.062502
55145	1449331 11219 8254 17376 113.5 194 323 184.17810058594 734.58110046387 147388.99986267 71379689.497696
55163	1460550 8353 10240 17413 130 194.25 258 0.97223939240464 11.648172402475 623.14721357461 2944.4279268446
55162	1468903 8872 10240 17413 130 194.25 258 -3.8517127037048 2.5 38.680875778198 333.5246660313
55161	1477775 8903 10213 17413 129.75 194.25 259 0 15.64999961853 2219.8121941919 29734.223042702
55160	1486678 9100 10186 17413 129.5 194.25 260 486.85000610352 486.85000610352 126581.00158691 61625961.395178
55159	1495778 9077 10186 17413 129.5 194.25 260 235.64929199219 785.82187652588 134440.73664093 73690015.046977
vector 55334  IntersectionExampleScenario.node[62].veinsmobility  posx  ETV
vector 55335  IntersectionExampleScenario.node[62].veinsmobility  posy  ETV
vector 55336  IntersectionExampleScenario.node[62].veinsmobility  speed  ETV
vector 55337  IntersectionExampleScenario.node[62].veinsmobility  acceleration  ETV
vector 55338  IntersectionExampleScenario.node[62].veinsmobility  co2emission  ETV
55219	1505256 5519 12979 17877 155.75 197.25 167 0.973 11.810082123732 560.45393764022 3371.7407957513
55218	1510775 5320 12979 17877 155.75 197.25 167 -3.5035037994385 2.5 38.511121749878 367.84920240006
55217	1516095 5550 12948 17877 155.5 197.25 168 5.6500000953674 15.875 2186.7304711342 29968.419705767
55216	1521645 5908 12917 17877 155.25 197.25 169 486.85000610352 734.08427429199 90491.93989563 49405972.460237
55215	1527553 5903 12917 17877 155.25 197.25 169 486.85000610352 785.82187652588 96617.719459534 56981406.254915
vector 55341  IntersectionExampleScenario.node[63].veinsmobility  posx  ETV
vector 55342  IntersectionExampleScenario.node[63].veinsmobility  posy  ETV
vector 55343  IntersectionExampleScenario.node[63].veinsmobility  speed  ETV
vector 55344  IntersectionExampleScenario.node[63].veinsmobility  acceleration  ETV
vector 55345  IntersectionExampleScenario.node[63].veinsmobility  co2emission  ETV
vector 55348  IntersectionExampleScenario.node[64].veinsmobility  posx  ETV
vector 55349  IntersectionExampleScenario.node[64].veinsmobility  posy  ETV
vector 55355  IntersectionExampleScenario.node[65].veinsmobility  posx  ETV
vector 55356  IntersectionExampleScenario.node[65].veinsmobility  posy  ETV
vector 55362  IntersectionExampleScenario.node[66].veinsmobility  posx  ETV
vector 55363  IntersectionExampleScenario.node[66].veinsmobility  posy  ETV
vector 55350  IntersectionExampleScenario.node[64].veinsmobility  speed  ETV
vector 55357  IntersectionExampleScenario.node[65].veinsmobility  speed  ETV
vector 55364  IntersectionExampleScenario.node[66].veinsmobility  speed  ETV
vector 55351  IntersectionExampleScenario.node[64].veinsmobility  acceleration  ETV
vector 55352  IntersectionExampleScenario.node[64].veinsmobility  co2emission  ETV
vector 55358  IntersectionExampleScenario.node[65].veinsmobility  acceleration  ETV
vector 55359  IntersectionExampleScenario.node[65].veinsmobility  co2emission  ETV
vector 55365  IntersectionExampleScenario.node[66].veinsmobility  acceleration  ETV
vector 55366  IntersectionExampleScenario.node[66].veinsmobility  co2emission  ETV
55233	1535060 5562 14123 19516 166.75 207.5 164 0.973 11.36141391502 494.7605314744 2597.8626546339
55232	1540622 5491 14123 19516 166.75 207.5 164 -3.2971267700195 2.5 36.304327011108 263.33881707077
55231	1546113 5441 14096 19516 166.5 207.5 165 5.6500000953674 15.25 2191.359670639 30298.805163516
55230	1551554 5805 14069 19516 166.25 207.5 166 486.85000610352 735.20697021484 89408.212005615 49130302.909484
55229	1557359 5800 14069 19516 166.25 207.5 166 486.85000610352 785.82187652588 94936.650993347 56072464.159431
vector 55369  IntersectionExampleScenario.node[67].veinsmobility  posx  ETV
vector 55370  IntersectionExampleScenario.node[67].veinsmobility  posy  ETV
vector 55376  IntersectionExampleScenario.node[68].veinsmobility  posx  ETV
vector 55377  IntersectionExampleScenario.node[68].veinsmobility  posy  ETV
vector 55371  IntersectionExampleScenario.node[67].veinsmobility  speed  ETV
vector 55372  IntersectionExampleScenario.node[67].veinsmobility  acceleration  ETV
vector 55373  IntersectionExampleScenario.node[67].veinsmobility  co2emission  ETV
vector 55378  IntersectionExampleScenario.node[68].veinsmobility  speed  ETV
vector 55379  IntersectionExampleScenario.node[68].veinsmobility  acceleration  ETV
vector 55380  IntersectionExampleScenario.node[68].veinsmobility  co2emission  ETV
vector 55383  IntersectionExampleScenario.node[69].veinsmobility  posx  ETV
vector 55384  IntersectionExampleScenario.node[69].veinsmobility  posy  ETV
vector 55385  IntersectionExampleScenario.node[69].veinsmobility  speed  ETV
vector 55386  IntersectionExampleScenario.node[69].veinsmobility  acceleration  ETV
vector 55387  IntersectionExampleScenario.node[69].veinsmobility  co2emission  ETV
55275	1564362 5273 15259 20947 177 215.5 155 0.973 11.648172402475 467.17507503573 2447.3369852113
55274	1569635 4984 15259 20947 177 215.5 155 -3.3760986328125 2.5 37.662351608276 192.05801892214
55273	1574619 5223 15230 20947 176.75 215.5 156 5.6500000953674 15.64999961853 2212.4901561737 31985.657585421
55272	1579842 5495 15201 20947 176.5 215.5 157 486.85000610352 486.85000610352 76435.450958252 37212599.76555
55271	1585337 5460 15201 20947 176.5 215.5 157 237.80609130859 785.82187652588 81888.966377258 46859094.597199
55282	1590797 5647 15435 21670 178.5 220 167 0.973 10.916047529558 481.81844994553 2347.1621631059
55281	1596444 5130 15435 21670 178.5 220 167 -3.2858963012695 2.5 34.437047958374 246.25479750237
55280	1601574 5571 15406 21670 178.25 220 168 5.6500000953674 14.625 2178.0289516449 29276.547911342
55279	1607145 5904 15375 21670 178 220 169 237.97735595703 483.14999389648 73014.282897949 32512902.699952
55278	1613049 5886 15375 21670 178 220 169 184.17810058594 483.14999389648 67220.867340088 28539545.287848
vector 55390  IntersectionExampleScenario.node[70].veinsmobility  posx  ETV
vector 55391  IntersectionExampleScenario.node[70].veinsmobility  posy  ETV
vector 55392  IntersectionExampleScenario.node[70].veinsmobility  speed  ETV
vector 55393  IntersectionExampleScenario.node[70].veinsmobility  acceleration  ETV
vector 55394  IntersectionExampleScenario.node[70].veinsmobility  co2emission  ETV
vector 55397  IntersectionExampleScenario.node[71].veinsmobility  posx  ETV
vector 55398  IntersectionExampleScenario.node[71].veinsmobility  posy  ETV
vector 55399  IntersectionExampleScenario.node[71].veinsmobility  speed  ETV
vector 55400  IntersectionExampleScenario.node[71].veinsmobility  acceleration  ETV
vector 55401  IntersectionExampleScenario.node[71].veinsmobility  co2emission  ETV
55303	1619737 5286 16418 22488 187.25 225.5 154 0.973 11.648172402475 470.76336111104 2462.8829942015
55302	1625023 4860 16418 22488 187.25 225.5 154 -3.1964302062988 2.5 38.341367721558 191.50694040174
55301	1629883 5192 16385 22488 187 225.5 155 5.6500000953674 15.64999961853 2217.1332235336 32350.133803948
55300	1635075 5460 16354 22488 186.75 225.5 156 483.14999389648 483.14999389648 75371.399047852 36415690.989939
55299	1640535 5429 16354 22488 186.75 225.5 156 184.17810058594 733.26556396484 69982.629058838 35533807.588377
55170	1645964 10757 10796 22915 135.75 228.5 372 0.973 11.648172402475 736.61896353784 3077.9584700903
55169	1656721 9482 10796 22915 135.75 228.5 372 -7.092942237854 4 38.341367721558 476.74128165784
55168	1666203 9865 10773 22915 135.5 228.5 373 0 15.64999961853 2177.7517211437 30631.668078274
55167	1676068 13065 10750 22915 135.25 228.5 374 184.17810058594 483.36395263672 164393.33551025 74503717.836666
55166	1689133 13022 10750 22915 135.25 228.5 374 486.85000610352 733.04777526855 190263.65010071 97951533.74256
55198	1702155 10514 11673 23149 145 230.25 342 0.973 11.200708441096 683.35792038449 2777.341024416
55197	1712669 10760 11673 23149 145 230.25 342 -3.9874153137207 2.5 35.625318527222 328.35063230888
55196	1723429 10673 11644 23149 144.75 230.25 343 0 15.02499961853 2217.0817899797 28611.801752788
55195	1734102 12004 11617 23149 144.5 230.25 344 184.17810058594 733.92880249023 156923.88627625 75907046.196144
55194	1746106 12040 11617 23149 144.5 230.25 344 486.85000610352 486.85000610352 167476.40209961 81535887.38439
vector 55404  IntersectionExampleScenario.node[72].veinsmobility  posx  ETV
vector 55405  IntersectionExampleScenario.node[72].veinsmobility  posy  ETV
vector 55406  IntersectionExampleScenario.node[72].veinsmobility  speed  ETV
vector 55407  IntersectionExampleScenario.node[72].veinsmobility  acceleration  ETV
vector 55408  IntersectionExampleScenario.node[72].veinsmobility  co2emission  ETV
vector 55411  IntersectionExampleScenario.node[73].veinsmobility  posx  ETV
vector 55412  IntersectionExampleScenario.node[73].veinsmobility  posy  ETV
vector 55413  IntersectionExampleScenario.node[73].veinsmobility  speed  ETV
vector 55414  IntersectionExampleScenario.node[73].veinsmobility  acceleration  ETV
vector 55415  IntersectionExampleScenario.node[73].veinsmobility  co2emission  ETV
vector 55418  IntersectionExampleScenario.node[74].veinsmobility  posx  ETV
vector 55419  IntersectionExampleScenario.node[74].veinsmobility  posy  ETV
55212	1759102 10889 11938 23449 147.25 232.5 342 0.973 11.36141391502 721.63767753863 3011.7245785939
55211	1769991 11050 11938 23449 147.25 232.5 342 -4.5 2.5 38.680875778198 415.13970511602
55210	1781041 11201 11907 23449 147 232.5 343 0 15.372800827026 2260.9828784363 29326.189251188
55209	1792242 11997 11876 23449 146.75 232.5 344 167.29217529297 483.16226196289 145396.41864014 63812906.029266
55208	1804239 12032 11876 23449 146.75 232.5 344 486.85000610352 735.25598144531 175766.57232666 90975289.29134
vector 55420  IntersectionExampleScenario.node[74].veinsmobility  speed  ETV
vector 55421  IntersectionExampleScenario.node[74].veinsmobility  acceleration  ETV
vector 55422  IntersectionExampleScenario.node[74].veinsmobility  co2emission  ETV
55240	1816518 8395 14278 23560 168.25 233.25 261 0.973 12.099024792222 637.8823809206 3073.6819081533
55239	1824913 8868 14278 23560 168.25 233.25 261 -3.8226315975189 2.5 40.038900375366 343.02058883457
55238	1833781 8957 14251 23560 168 233.25 262 0 16.27499961853 2211.1947639864 29704.042816008
55237	1842738 9169 14224 23560 167.75 233.25 263 184.17810058594 731.54235839844 117491.39007568 56533774.667586
55236	1851907 9205 14224 23560 167.75 233.25 263 486.85000610352 486.85000610352 128041.55160522 62337030.180507
55247	1861112 8710 14416 23930 169.5 235.75 266 0.973 12.099024792222 696.54908587298 3524.167060965
55246	1869822 8784 14416 23930 169.5 235.75 266 -4.5 2.5 42.754949569702 513.5396716399
55245	1878606 9017 14388 23930 169.25 235.75 267 0 16.362396240234 2277.2610222828 31283.176988313
55244	1887623 9355 14359 23930 169 235.75 268 162.90466308594 483.19515991211 109543.31744385 46962789.33096
55243	1896978 9374 14359 23930 169 235.75 268 486.85000610352 734.90269470215 138262.18318176 72383246.706058
55254	1906352 8935 14582 24337 171 238.5 271 0.973 11.093806525473 635.06018571959 2840.0012661112
55253	1915287 9269 14582 24337 171 238.5 271 -4.5 2.5 35.976598739624 377.54044132355
55252	1924556 9279 14553 24337 170.75 238.5 272 0 14.875 2349.017033102 30280.557962109
55251	1933835 9526 14524 24337 170.5 238.5 273 153.24768066406 735.2156829834 118609.18783569 56615908.03089
55250	1943361 9555 14524 24337 170.5 238.5 273 486.85000610352 486.85003662109 132910.05175781 64707259.554082
vector 55425  IntersectionExampleScenario.node[75].veinsmobility  posx  ETV
vector 55426  IntersectionExampleScenario.node[75].veinsmobility  posy  ETV
vector 55427  IntersectionExampleScenario.node[75].veinsmobility  speed  ETV
vector 55428  IntersectionExampleScenario.node[75].veinsmobility  acceleration  ETV
vector 55429  IntersectionExampleScenario.node[75].veinsmobility  co2emission  ETV
55268	1953317 8037 15201 24604 176.5 240.25 256 0.973 11.450879080643 629.42829591168 3070.1061403975
55267	1961354 8225 15201 24604 176.5 240.25 256 -3.7672145366669 2.5 38.680875778198 387.8282882986
55266	1969579 8410 15172 24604 176.25 240.25 257 0 15.375 2249.1919126213 28676.86318245
55265	1977989 9012 15141 24604 176 240.25 258 173.28094482422 486.87957763672 104330.76547241 44217963.55636
55264	1987001 8991 15141 24604 176 240.25 258 237.37982177734 486.85000610352 117278.07919312 54425792.426979
55289	1995992 7853 15732 24963 181.25 242.75 247 0.973 11.200708441096 602.87446443363 2852.0490987633
55288	2003845 8109 15732 24963 181.25 242.75 247 -3.5 3.5281522572041 37.32285118103 345.90234274314
55287	2011954 8222 15705 24963 181 242.75 248 0 15.273125648499 2228.424364537 28170.105813475
55286	2020176 8688 15678 24963 180.75 242.75 249 178.14270019531 486.85000610352 100493.40570068 42500897.851027
55285	2028864 8714 15678 24963 180.75 242.75 249 237.32702636719 486.85003662109 112715.95367432 52148063.65657
55317	2037578 6983 16719 25337 189.5 245.5 225 0.973 11.648172402475 607.67074502753 3281.3944934848
55316	2044561 7389 16719 25337 189.5 245.5 225 -3.7191276550293 2.5000019073486 37.832105636597 408.80877639475
55315	2051950 7579 16684 25337 189.25 245.5 226 0 15.64999961853 2176.7311644983 27387.72591253
55314	2059529 7903 16649 25337 189 245.5 227 184.17810058594 483.14999389648 91121.519744873 38362500.386829
55313	2067432 7934 16649 25337 189 245.5 227 486.85000610352 731.91679382324 118687.86825562 63093122.793916
55359	2075366 5614 18914 25464 204 246.5 171 0.97223939240464 11.648172402475 567.22382197607 3356.7635555768
55358	2080980 5383 18914 25464 204 246.5 171 -4.1218910217285 2.5 38.680875778198 336.79662365379
55357	2086363 5789 18871 25464 203.75 246.5 172 5.6500000953674 15.64999961853 2224.0510454178 29942.39988481
55356	2092152 6008 18828 25464 203.5 246.5 173 184.17810058594 735.36817932129 76869.941482544 38389986.046203
55355	2098160 6055 18828 25464 203.5 246.5 173 486.85000610352 486.85000610352 84225.051055908 41004966.620638
vector 55432  IntersectionExampleScenario.node[76].veinsmobility  posx  ETV
vector 55433  IntersectionExampleScenario.node[76].veinsmobility  posy  ETV
vector 55434  IntersectionExampleScenario.node[76].veinsmobility  speed  ETV
vector 55435  IntersectionExampleScenario.node[76].veinsmobility  acceleration  ETV
vector 55436  IntersectionExampleScenario.node[76].veinsmobility  co2emission  ETV
vector 55439  IntersectionExampleScenario.node[77].veinsmobility  posx  ETV
vector 55440  IntersectionExampleScenario.node[77].veinsmobility  posy  ETV
vector 55441  IntersectionExampleScenario.node[77].veinsmobility  speed  ETV
vector 55442  IntersectionExampleScenario.node[77].veinsmobility  acceleration  ETV
vector 55443  IntersectionExampleScenario.node[77].veinsmobility  co2emission  ETV
vector 55446  IntersectionExampleScenario.node[78].veinsmobility  posx  ETV
vector 55447  IntersectionExampleScenario.node[78].veinsmobility  posy  ETV
vector 55448  IntersectionExampleScenario.node[78].veinsmobility  speed  ETV
vector 55449  IntersectionExampleScenario.node[78].veinsmobility  acceleration  ETV
vector 55450  IntersectionExampleScenario.node[78].veinsmobility  co2emission  ETV
vector 55453  IntersectionExampleScenario.node[79].veinsmobility  posx  ETV
vector 55454  IntersectionExampleScenario.node[79].veinsmobility  posy  ETV
vector 55455  IntersectionExampleScenario.node[79].veinsmobility  speed  ETV
vector 55456  IntersectionExampleScenario.node[79].veinsmobility  acceleration  ETV
vector 55457  IntersectionExampleScenario.node[79].veinsmobility  co2emission  ETV
55226	2105819 10522 14019 26826 165.75 256.25 363 0.973 11.648172402475 724.90955260614 3057.8830668475
55225	2116341 9482 14019 26826 165.75 256.25 363 -8.4908542633057 4 38.001859664917 488.16021245119
55224	2125823 9674 13994 26826 165.5 256.25 364 0 15.64999961853 2172.5753586292 30408.735714519
55223	2135497 12769 13969 26826 165.25 256.25 365 486.63604736328 785.82187652588 193943.50861359 105290106.35487
55222	2148266 12711 13969 26826 165.25 256.25 365 237.98760986328 483.14999389648 168193.9185791 78651226.672464
55261	2160977 10154 14967 26937 174.5 257 331 0.973 11.990504229548 703.89054354522 3186.6444174574
55260	2171131 10439 14967 26937 174.5 257 331 -3.9481029510498 2.5 39.869146347046 352.39872873327
55259	2181570 10330 14938 26937 174.25 257 332 0 16.125 2219.3287387239 30215.003151115
55258	2191900 11627 14909 26937 174 257 333 235.95611572266 785.82187652588 171396.14174652 92341715.993966
55257	2203527 11653 14909 26937 174 257 333 483.14999389648 483.14999389648 160888.94796753 77733494.228524
vector 55460  IntersectionExampleScenario.node[80].veinsmobility  posx  ETV
vector 55461  IntersectionExampleScenario.node[80].veinsmobility  posy  ETV
vector 55462  IntersectionExampleScenario.node[80].veinsmobility  speed  ETV
vector 55463  IntersectionExampleScenario.node[80].veinsmobility  acceleration  ETV
vector 55464  IntersectionExampleScenario.node[80].veinsmobility  co2emission  ETV
vector 55467  IntersectionExampleScenario.node[81].veinsmobility  posx  ETV
vector 55468  IntersectionExampleScenario.node[81].veinsmobility  posy  ETV
vector 55469  IntersectionExampleScenario.node[81].veinsmobility  speed  ETV
55296	2215813 9734 16006 27428 183.75 260.25 307 0.973 11.200708441096 654.40037370001 2747.6178310824
55295	2225547 9992 16006 27428 183.75 260.25 307 -3.768513917923 2.5000019073486 36.813589096069 318.03318604283
55294	2235539 10228 15977 27428 183.5 260.25 308 0 15.02499961853 2214.4016899252 28561.008526955
55293	2245767 10783 15948 27428 183.25 260.25 309 237.01019287109 785.82187652588 160314.59989166 87416558.85157
55292	2256550 10816 15948 27428 183.25 260.25 309 483.14999389648 483.14999389648 149293.34811401 72131080.230071
vector 55470  IntersectionExampleScenario.node[81].veinsmobility  acceleration  ETV
vector 55471  IntersectionExampleScenario.node[81].veinsmobility  co2emission  ETV
55373	2267535 6801 19780 27673 209 261.75 212 0.973 11.648172402475 573.57997173464 2796.0326833426
55372	2274336 7080 19780 27673 209 261.75 212 -3.9435925483704 2.5 38.850629806519 320.91960482185
55371	2281416 7294 19733 27673 208.75 261.75 213 0 15.64999961853 2219.7390356921 29598.099967832
55370	2288710 7473 19688 27673 208.5 261.75 214 236.25946044922 785.82187652588 112002.75662994 62766113.674926
55369	2296183 7491 19688 27673 208.5 261.75 214 483.14999389648 483.14999389648 103394.09869385 49954858.152865
vector 55474  IntersectionExampleScenario.node[82].veinsmobility  posx  ETV
vector 55475  IntersectionExampleScenario.node[82].veinsmobility  posy  ETV
vector 55476  IntersectionExampleScenario.node[82].veinsmobility  speed  ETV
vector 55477  IntersectionExampleScenario.node[82].veinsmobility  acceleration  ETV
vector 55478  IntersectionExampleScenario.node[82].veinsmobility  co2emission  ETV
vector 55481  IntersectionExampleScenario.node[83].veinsmobility  posx  ETV
vector 55482  IntersectionExampleScenario.node[83].veinsmobility  posy  ETV
vector 55483  IntersectionExampleScenario.node[83].veinsmobility  speed  ETV
vector 55488  IntersectionExampleScenario.node[84].veinsmobility  posx  ETV
vector 55489  IntersectionExampleScenario.node[84].veinsmobility  posy  ETV
vector 55484  IntersectionExampleScenario.node[83].veinsmobility  acceleration  ETV
vector 55485  IntersectionExampleScenario.node[83].veinsmobility  co2emission  ETV
vector 55490  IntersectionExampleScenario.node[84].veinsmobility  speed  ETV
vector 55491  IntersectionExampleScenario.node[84].veinsmobility  acceleration  ETV
vector 55492  IntersectionExampleScenario.node[84].veinsmobility  co2emission  ETV
55408	2304877 5483 23311 29034 231.5 271.25 160 0.973 11.200708441096 454.78650599077 2190.3074413497
55407	2310360 4966 23311 29034 231.5 271.25 160 -3.1778335571289 2.5 35.455564498901 171.03101740571
55406	2315326 5420 23278 29034 231.25 271.25 161 5.6500000953674 15.02499961853 2219.631685257 31094.052777967
55405	2320746 5653 23245 29034 231 271.25 162 235.83654785156 785.82187652588 84224.071556091 48093965.194114
55404	2326399 5669 23245 29034 231 271.25 162 483.14999389648 483.14999389648 78270.29901123 37816294.489552
vector 55495  IntersectionExampleScenario.node[85].veinsmobility  posx  ETV
vector 55496  IntersectionExampleScenario.node[85].veinsmobility  posy  ETV
vector 55497  IntersectionExampleScenario.node[85].veinsmobility  speed  ETV
vector 55502  IntersectionExampleScenario.node[86].veinsmobility  posx  ETV
vector 55503  IntersectionExampleScenario.node[86].veinsmobility  posy  ETV
vector 55498  IntersectionExampleScenario.node[85].veinsmobility  acceleration  ETV
vector 55499  IntersectionExampleScenario.node[85].veinsmobility  co2emission  ETV
vector 55504  IntersectionExampleScenario.node[86].veinsmobility  speed  ETV
vector 55505  IntersectionExampleScenario.node[86].veinsmobility  acceleration  ETV
vector 55506  IntersectionExampleScenario.node[86].veinsmobility  co2emission  ETV
vector 55509  IntersectionExampleScenario.node[87].veinsmobility  posx  ETV
vector 55510  IntersectionExampleScenario.node[87].veinsmobility  posy  ETV
vector 55511  IntersectionExampleScenario.node[87].veinsmobility  speed  ETV
vector 55512  IntersectionExampleScenario.node[87].veinsmobility  acceleration  ETV
vector 55513  IntersectionExampleScenario.node[87].veinsmobility  co2emission  ETV
vector 55516  IntersectionExampleScenario.node[88].veinsmobility  posx  ETV
vector 55517  IntersectionExampleScenario.node[88].veinsmobility  posy  ETV
vector 55518  IntersectionExampleScenario.node[88].veinsmobility  speed  ETV
vector 55519  IntersectionExampleScenario.node[88].veinsmobility  acceleration  ETV
vector 55520  IntersectionExampleScenario.node[88].veinsmobility  co2emission  ETV
vector 55523  IntersectionExampleScenario.node[89].veinsmobility  posx  ETV
vector 55524  IntersectionExampleScenario.node[89].veinsmobility  posy  ETV
55310	2333826 10646 16451 29965 187.5 278.25 364 0.973 11.652927388137 741.23231045733 3109.6085243912
55309	2344472 9546 16451 29965 187.5 278.25 364 -7.2039084434509 4 38.171613693237 486.85852340697
55308	2354018 9888 16418 29965 187.25 278.25 365 0 15.656616210938 2308.4374369383 32444.091191886
55307	2363906 12809 16385 29965 187 278.25 366 483.14999389648 483.14999389648 176832.89776611 85436813.476396
55306	2376715 12785 16385 29965 187 278.25 366 159.76721191406 732.85957336426 166344.58956909 80538415.3097
vector 55525  IntersectionExampleScenario.node[89].veinsmobility  speed  ETV
55331	2389578 10198 16969 30000 191.25 278.5 350 0.973 11.648172402475 710.40819000484 3038.0094311741
55330	2399776 9264 16969 30000 191.25 278.5 350 -7.1126251220703 4 37.662351608276 464.01882058852
55329	2409040 9424 16932 30000 191 278.5 351 0 15.64999961853 2184.1380417347 30418.309471944
55328	2418464 12256 16895 30000 190.75 278.5 352 486.85000610352 734.74336242676 179749.00276184 92970280.265461
55327	2430720 12307 16895 30000 190.75 278.5 352 486.63604736328 785.82187652588 187494.49680328 102097028.04677
vector 55526  IntersectionExampleScenario.node[89].veinsmobility  acceleration  ETV
vector 55527  IntersectionExampleScenario.node[89].veinsmobility  co2emission  ETV
vector 55530  IntersectionExampleScenario.node[90].veinsmobility  posx  ETV
vector 55531  IntersectionExampleScenario.node[90].veinsmobility  posy  ETV
vector 55532  IntersectionExampleScenario.node[90].veinsmobility  speed  ETV
vector 55533  IntersectionExampleScenario.node[90].veinsmobility  acceleration  ETV
vector 55534  IntersectionExampleScenario.node[90].veinsmobility  co2emission  ETV
55352	2443597 9498 18914 30137 204 279.5 303 0.973 11.54047740176 657.13424657401 2881.2979252142
55351	2453095 9818 18914 30137 204 279.5 303 -3.8088512420654 2.5 37.15309715271 337.27000457751
55350	2462913 9780 18871 30137 203.75 279.5 304 0 15.5 2211.562173455 29113.815609358
55349	2472693 10675 18828 30137 203.5 279.5 305 486.85000610352 486.85000610352 148489.25186157 72291993.175113
55348	2483368 10649 18828 30137 203.5 279.5 305 237.63812255859 785.82187652588 157260.06035614 85296408.474035
55324	2494017 11064 16895 30338 190.75 281 362 0.973 11.200708441096 730.2987284488 2959.3012383969
55323	2505081 10470 16895 30338 190.75 281 362 -4.5 2.5 36.98334312439 426.65092978931
55322	2515551 10793 16860 30338 190.5 281 363 0 15.395285606384 2320.3224411663 32002.575896294
55321	2526344 12740 16824 30338 190.25 281 364 483.14999389648 483.14999389648 175866.59777832 84969945.643191
55320	2539084 12714 16824 30338 190.25 281 364 159.79418945312 735.28034973145 164734.91641235 79445146.491655
55380	2551798 9468 19827 30498 209.25 282.25 293 0.973 11.450879080643 645.2368799298 2847.5645846321
55379	2561266 10008 19827 30498 209.25 282.25 293 -3.9652001857758 2.5000019073486 37.15309715271 346.03907298878
55378	2571274 9951 19780 30498 209 282.25 294 0 15.375 2206.8134238785 28109.998948868
55377	2581225 10315 19733 30498 208.75 282.25 295 237.05487060547 486.85000610352 135069.5838623 63019211.093554
55376	2591540 10300 19733 30498 208.75 282.25 295 483.14999389648 785.82187652588 161621.76569366 90578383.185111
55338	2601840 10949 17565 30622 195.25 283.25 353 0.973 11.450879080643 711.9345150699 2934.9102177663
55337	2612789 11021 17565 30622 195.25 283.25 353 -3.8844227790833 2.5 37.15309715271 343.85178848639
55336	2623810 11073 17526 30622 195 283.25 354 0 15.375 2262.2048227405 29656.00645985
55335	2634883 12419 17487 30622 194.75 283.25 355 483.14999389648 732.28997802734 180023.08125305 92499818.967571
55334	2647302 12405 17487 30622 194.75 283.25 355 169.50128173828 486.85000610352 151311.05529785 66887512.632945
vector 55537  IntersectionExampleScenario.node[91].veinsmobility  posx  ETV
vector 55538  IntersectionExampleScenario.node[91].veinsmobility  posy  ETV
vector 55539  IntersectionExampleScenario.node[91].veinsmobility  speed  ETV
vector 55540  IntersectionExampleScenario.node[91].veinsmobility  acceleration  ETV
vector 55541  IntersectionExampleScenario.node[91].veinsmobility  co2emission  ETV
55345	2660108 10536 18640 30902 202.25 285.5 334 0.973 11.36141391502 690.94860226384 2940.9406333096
55344	2670644 11093 18640 30902 202.25 285.5 334 -3.8658471107483 2.5 37.662351608276 355.31205498896
55343	2681737 10921 18601 30902 202 285.5 335 0 15.25 2177.5515399547 27408.42466131
55342	2692658 11756 18562 30902 201.75 285.5 336 238.40490722656 483.14999389648 154164.22293091 71864468.3865
55341	2704414 11718 18562 30902 201.75 285.5 336 184.17810058594 483.15267944336 142030.43960571 62028837.628806
55366	2716132 10996 18914 31116 204 287.25 334 0.973 11.648172402475 729.87962774023 3146.0293362014
55365	2727128 11457 18914 31116 204 287.25 334 -4.5 2.5 40.378400802612 435.39468345267
55364	2738585 11348 18871 31116 203.75 287.25 335 0 15.790412902832 2259.178770774 29608.726487808
55363	2749933 11748 18828 31116 203.5 287.25 336 237.45538330078 483.14999389648 154422.71386719 72074041.075456
55362	2761681 11719 18828 31116 203.5 287.25 336 164.94219970703 483.18182373047 139588.19894409 60244617.298344
vector 55544  IntersectionExampleScenario.node[92].veinsmobility  posx  ETV
vector 55545  IntersectionExampleScenario.node[92].veinsmobility  posy  ETV
vector 55551  IntersectionExampleScenario.node[93].veinsmobility  posx  ETV
vector 55552  IntersectionExampleScenario.node[93].veinsmobility  posy  ETV
vector 55546  IntersectionExampleScenario.node[92].veinsmobility  speed  ETV
vector 55553  IntersectionExampleScenario.node[93].veinsmobility  speed  ETV
vector 55547  IntersectionExampleScenario.node[92].veinsmobility  acceleration  ETV
vector 55548  IntersectionExampleScenario.node[92].veinsmobility  co2emission  ETV
vector 55554  IntersectionExampleScenario.node[93].veinsmobility  acceleration  ETV
vector 55555  IntersectionExampleScenario.node[93].veinsmobility  co2emission  ETV
55387	2774202 10217 20239 31435 211.5 289.75 314 0.973 11.925882114753 690.74200972746 3199.0293410186
55386	2784419 10753 20239 31435 211.5 289.75 314 -3.8747172355652 2.5 39.699392318726 376.81644248334
55385	2795172 10663 20192 31435 211.25 289.75 315 0 16.035545349121 2190.8563288879 28199.127358476
55384	2805835 11051 20145 31435 211 289.75 316 235.48303222656 483.14999389648 144567.28973389 67263576.463716
55383	2816886 11002 20145 31435 211 289.75 316 184.17810058594 483.14999389648 131352.13058472 56473836.428732
55415	2827888 7413 23414 31590 232.25 291 236 0.973 11.648172402475 606.91901993256 3073.2308665354
55414	2835301 7715 23414 31590 232.25 291 236 -4.183292388916 2.5 38.341367721558 378.15518534726
55413	2843016 7831 23379 31590 232 291 237 0 15.64999961853 2222.088403672 28973.856492295
55412	2850847 8329 23344 31590 231.75 291 238 483.14999389648 483.14999389648 114989.69854736 55557272.151317
55411	2859176 8285 23344 31590 231.75 291 238 184.17810058594 734.26165771484 104923.21772766 50469994.052989
55422	2867461 7806 23523 31918 233 293.75 244 0.973 11.927690288837 675.08999116935 3513.2511681851
55421	2875267 7478 23523 31918 233 293.75 244 -5.2740225791931 4 40.887662887573 644.76267445334
55420	2882745 7869 23486 31918 232.75 293.75 245 0 16.038049697876 2279.9745279625 30292.824697111
55419	2890614 8604 23449 31918 232.5 293.75 246 235.96032714844 483.14999389648 110913.37008667 51052877.73496
55418	2899218 8478 23449 31918 232.5 293.75 246 161.1796875 483.26028442383 97998.248718262 41203695.594503
vector 55558  IntersectionExampleScenario.node[94].veinsmobility  posx  ETV
vector 55559  IntersectionExampleScenario.node[94].veinsmobility  posy  ETV
vector 55560  IntersectionExampleScenario.node[94].veinsmobility  speed  ETV
vector 55561  IntersectionExampleScenario.node[94].veinsmobility  acceleration  ETV
vector 55562  IntersectionExampleScenario.node[94].veinsmobility  co2emission  ETV
55457	2908097 5362 26752 32067 255.75 295 158 0.973 11.810082123732 515.14967409257 2882.1995896436
55456	2913459 4947 26752 32067 255.75 295 158 -3.3704605102539 2.5 39.699392318726 285.64294964468
55455	2918406 5242 26715 32067 255.5 295 159 5.6500000953674 15.875 2191.9234714508 31701.660902998
55454	2923648 5593 26678 32067 255.25 295 160 486.85000610352 735.03141784668 86040.407958984 47195554.885577
55453	2929241 5590 26678 32067 255.25 295 160 486.7971496582 785.82187652588 91552.019416809 54118387.221387
vector 55565  IntersectionExampleScenario.node[95].veinsmobility  posx  ETV
vector 55566  IntersectionExampleScenario.node[95].veinsmobility  posy  ETV
55436	2934985 6213 25685 32222 248.25 296.25 193 0.97223939240464 11.810082123732 579.31255225347 3228.5601242515
55435	2941198 6299 25685 32222 248.25 296.25 193 -2.3712902069092 2.5 38.680875778198 357.38786208858
55434	2947497 6441 25652 32222 248 296.25 194 4.1924428939819 15.875 2178.2692050934 27686.766583032
55433	2953938 6823 25619 32222 247.75 296.25 195 238.12738037109 483.14999389648 86155.140991211 39044039.304966
55432	2960761 6792 25619 32222 247.75 296.25 195 184.17810058594 483.14999389648 77809.442779541 32810472.877484
vector 55567  IntersectionExampleScenario.node[95].veinsmobility  speed  ETV
vector 55568  IntersectionExampleScenario.node[95].veinsmobility  acceleration  ETV
vector 55569  IntersectionExampleScenario.node[95].veinsmobility  co2emission  ETV
vector 55572  IntersectionExampleScenario.node[96].veinsmobility  posx  ETV
vector 55573  IntersectionExampleScenario.node[96].veinsmobility  posy  ETV
vector 55574  IntersectionExampleScenario.node[96].veinsmobility  speed  ETV
vector 55575  IntersectionExampleScenario.node[96].veinsmobility  acceleration  ETV
vector 55576  IntersectionExampleScenario.node[96].veinsmobility  co2emission  ETV
55450	2968201 6173 26128 32477 251.5 298.25 188 0.973 11.648172402475 548.614458745 2871.9329705623
55449	2974374 6235 26128 32477 251.5 298.25 188 -4.5 2.5 38.850629806519 302.25872707013
[...]
vector 59230  IntersectionExampleScenario.node[618].veinsmobility  co2emission  ETV
59034	25363619 8887 223534 235801 1723.5 1792.25 276 0.973 11.810082123732 677.80718573704 3477.7247812097
59033	25372506 8437 223534 235801 1723.5 1792.25 276 -4.5 2.5 39.529638290405 509.88757808116
59032	25380943 8683 223481 235801 1723.25 1792.25 277 0 15.875 2090.3664424773 27736.035842956
59031	25389626 10273 223428 235801 1723 1792.25 278 207.58673095703 483.14999389648 114573.99847412 48641430.050569
59030	25399899 10273 223428 235801 1723 1792.25 278 486.85000610352 733.33348083496 143389.96725464 75044201.496159
59027	25410172 9859 223481 236110 1723.25 1794.25 285 0.973 11.450879080643 690.89100052568 3253.7091532917
59026	25420031 9974 223481 236110 1723.25 1794.25 285 -4.5 2.5 41.79419708252 451.35365081354
59025	25430005 10012 223428 236110 1723 1794.25 286 0 15.559581756592 2217.3299334021 28687.489784029
59024	25440017 10595 223377 236110 1722.75 1794.25 287 179.81719970703 486.88070678711 115128.38369751 48166474.053748
59023	25450612 10604 223377 236110 1722.75 1794.25 287 238.30804443359 486.85000610352 131414.84960938 61309185.30985
vector 59233  IntersectionExampleScenario.node[619].veinsmobility  posx  ETV
vector 59234  IntersectionExampleScenario.node[619].veinsmobility  posy  ETV
vector 59235  IntersectionExampleScenario.node[619].veinsmobility  speed  ETV
vector 59236  IntersectionExampleScenario.node[619].veinsmobility  acceleration  ETV
vector 59237  IntersectionExampleScenario.node[619].veinsmobility  co2emission  ETV
vector 59240  IntersectionExampleScenario.node[620].veinsmobility  posx  ETV
vector 59241  IntersectionExampleScenario.node[620].veinsmobility  posy  ETV
vector 59242  IntersectionExampleScenario.node[620].veinsmobility  speed  ETV
vector 59243  IntersectionExampleScenario.node[620].veinsmobility  acceleration  ETV
vector 59244  IntersectionExampleScenario.node[620].veinsmobility  co2emission  ETV
59041	25462028 9551 224176 236458 1726.75 1796.5 280 0.973 11.810082123732 697.66464045607 3510.1708923242
59040	25471579 10058 224176 236458 1726.75 1796.5 280 -4.1577796936035 2.5000019073486 40.038900375366 438.47239932534
59039	25481637 10053 224127 236458 1726.5 1796.5 281 0 15.875 2249.4372548591 28604.720808329
59038	25491690 10411 224078 236458 1726.25 1796.5 282 169.38836669922 483.19454956055 111618.32672119 46168608.289567
59037	25502101 10415 224078 236458 1726.25 1796.5 282 486.85000610352 735.10542297363 145395.09095764 76066469.247941
vector 59247  IntersectionExampleScenario.node[621].veinsmobility  posx  ETV
vector 59248  IntersectionExampleScenario.node[621].veinsmobility  posy  ETV
vector 59254  IntersectionExampleScenario.node[622].veinsmobility  posx  ETV
vector 59255  IntersectionExampleScenario.node[622].veinsmobility  posy  ETV
vector 59249  IntersectionExampleScenario.node[621].veinsmobility  speed  ETV
vector 59250  IntersectionExampleScenario.node[621].veinsmobility  acceleration  ETV
vector 59251  IntersectionExampleScenario.node[621].veinsmobility  co2emission  ETV
vector 59256  IntersectionExampleScenario.node[622].veinsmobility  speed  ETV
vector 59261  IntersectionExampleScenario.node[623].veinsmobility  posx  ETV
vector 59262  IntersectionExampleScenario.node[623].veinsmobility  posy  ETV
vector 59257  IntersectionExampleScenario.node[622].veinsmobility  acceleration  ETV
vector 59258  IntersectionExampleScenario.node[622].veinsmobility  co2emission  ETV
vector 59263  IntersectionExampleScenario.node[623].veinsmobility  speed  ETV
vector 59264  IntersectionExampleScenario.node[623].veinsmobility  acceleration  ETV
vector 59265  IntersectionExampleScenario.node[623].veinsmobility  co2emission  ETV
59083	25513734 8578 225829 236992 1736 1799.75 256 0.973 11.200708441096 606.23376566027 2796.6676624275
59082	25522312 8958 225829 236992 1736 1799.75 256 -3.9622220993042 2.5 35.795072555542 333.67559762743
59081	25531270 9199 225784 236992 1735.75 1799.75 257 0 15.02499961853 2178.7718571723 25643.719967289
59080	25540469 9520 225739 236992 1735.5 1799.75 258 184.17810058594 483.14999389648 102172.5032959 42291716.230446
59079	25549989 9537 225739 236992 1735.5 1799.75 258 486.85000610352 732.26759338379 134073.68757629 70777594.563139
58992	25559526 10943 221252 237036 1711 1800 357 0.973 11.36141391502 687.57820615129 2847.7114284613
58991	25570469 9933 221252 237036 1711 1800 357 -9.2727584838867 4 36.643884658813 491.89910828853
58990	25580402 10057 221211 237036 1710.75 1800 358 0 15.25 1905.3597354889 25877.21905718
58989	25590459 13273 221170 237036 1710.5 1800 359 486.63604736328 785.82187652588 191343.78009796 104220901.55757
58988	25603732 13216 221170 237036 1710.5 1800 359 305.07586669922 483.14999389648 168992.48065186 80020260.095018
59069	25616948 8962 225298 237036 1733 1800 269 0.973 12.099024792222 627.14747598278 3083.5531916351
59068	25625910 9509 225298 237036 1733 1800 269 -3.9311535358429 2.5 41.057546615601 357.68651111627
59067	25635419 9294 225251 237036 1732.75 1800 270 0 16.27499961853 1884.5056086667 25038.651531982
59066	25644713 9997 225204 237036 1732.5 1800 271 482.9704284668 785.82187652588 148375.36907196 83199930.580235
59065	25654710 10007 225204 237036 1732.5 1800 271 483.14999389648 652.16264343262 134704.94877625 67325942.322566
59076	25664717 8828 225784 237036 1735.75 1800 258 0.973 11.200708441096 571.65844847848 2600.3671507393
59075	25673545 9507 225784 237036 1735.75 1800 258 -4.3587036132812 2.5000019073486 35.965215682983 353.3275150051
59074	25683052 9374 225739 237036 1735.5 1800 259 0 15.02499961853 1802.6415400859 22178.795100982
59073	25692426 9599 225696 237036 1735.25 1800 260 353.84124755859 800.04531860352 143523.08647919 81905996.116451
59072	25702025 9620 225696 237036 1735.25 1800 260 483.14999389648 483.14999389648 125618.99841309 60692818.316565
59090	25711645 8558 226184 237036 1738 1800 249 0.973 11.54047740176 631.78214105285 3013.6438436251
59089	25720203 8769 226184 237036 1738 1800 249 -4.5 2.5 37.32285118103 383.53067376335
59088	25728972 9003 226139 237036 1737.75 1800 250 0 15.5 2263.4124897234 27941.190220556
59087	25737975 9215 226094 237036 1737.5 1800 251 166.078125 727.13166809082 105160.93991089 48720734.113939
59086	25747190 9286 226094 237036 1737.5 1800 251 486.85000610352 486.85000610352 122199.35153198 59492755.039191
59097	25756476 7795 226894 237036 1742.25 1800 232 0.973 10.916047529558 590.96458280599 2789.5150433086
59096	25764271 8293 226894 237036 1742.25 1800 232 -3.8111112117767 2.5 36.98334312439 369.07880428073
59095	25772564 8251 226851 237036 1742 1800 233 0 15.008731842041 2013.9425125998 23698.264688554
59094	25780815 8632 226808 237036 1741.75 1800 234 170.76715087891 483.14999389648 89711.541748047 36279736.474571
59093	25789447 8648 226808 237036 1741.75 1800 234 486.85000610352 677.29248046875 118990.30169678 61036002.905508
59104	25798095 7285 227373 237036 1745 1800 221 0.973 11.648172402475 526.22450055674 2776.6222865417
59103	25805380 7775 227373 237036 1745 1800 221 -3.9252083301544 2.5 38.860410690308 344.63696589087
59102	25813155 7890 227326 237036 1744.75 1800 222 0 15.64999961853 1549.7399887256 17768.199756922
59101	25821045 8232 227281 237036 1744.5 1800 223 486.85000610352 785.82187652588 126826.58985138 73796349.874815
59100	25829277 8248 227281 237036 1744.5 1800 223 395.55880737305 483.14999389648 106589.09805298 51005725.145013
59111	25837525 6594 227420 237036 1745.25 1800 220 0.973 12.099024792222 403.63954815385 1718.1976251977
59110	25844119 6065 227420 237036 1745.25 1800 220 -8.3547468185425 2.5 -22.60000038147 350.58599272205
59109	25850184 6245 227373 237036 1745 1800 221 0 16.27499961853 1146.4635324478 16740.370085209
59108	25856429 8213 227326 237036 1744.75 1800 222 486.85000610352 486.85000610352 108080.70135498 52619090.114344
59107	25864642 8208 227326 237036 1744.75 1800 222 498.39999389648 785.82187652588 123100.24504852 70117665.330331
59118	25872850 6487 227607 237036 1746.25 1800 216 0.973 11.648172402475 391.77039042902 1617.8818528693
59117	25879337 6109 227607 237036 1746.25 1800 216 -8.1806297302246 2.5 -22.60000038147 331.91234134143
59116	25885446 6205 227560 237036 1746 1800 217 0 15.64999961853 1146.5682661533 16058.346297116
59115	25891651 8065 227513 237036 1745.75 1800 218 483.14999389648 483.14999389648 105326.69866943 50888593.819274
59114	25899716 8037 227513 237036 1745.75 1800 218 184.17810058594 471.60000610352 89972.917297363 38996556.504338
59125	25907753 6635 228551 237036 1751.25 1800 196 0.973 11.648172402475 500.31617178052 2650.4105808871
59124	25914388 6960 228551 237036 1751.25 1800 196 -4.1168746948242 2.5 39.731157302856 349.76462821296
59123	25921348 7042 228502 237036 1751 1800 197 0 15.64999961853 1505.750023677 18763.421917221
59122	25928390 7313 228453 237036 1750.75 1800 198 414.94400024414 785.82187652588 113162.19515228 66379890.94956
59121	25935703 7325 228453 237036 1750.75 1800 198 483.14999389648 483.14999389648 95663.698791504 46219915.48723
59132	25943028 6176 228981 237036 1753.5 1800 187 0.973 11.648172402475 349.75591911556 1493.0785856949
59131	25949204 7039 228981 237036 1753.5 1800 187 -3.9878361225128 2.5 -22.60000038147 192.68387511443
59130	25956243 6845 228932 237036 1753.25 1800 188 0 15.64999961853 1123.2617318295 14029.829574771
59129	25963088 6991 228883 237036 1753 1800 189 486.85000610352 486.85000610352 92014.651153564 44797333.475726
59128	25970079 6978 228883 237036 1753 1800 189 504.79751586914 785.82187652588 108368.67333221 63728653.927026
59139	25977057 6066 229083 237036 1754 1800 185 0.973 11.648172402475 345.11909519453 1483.0432011453
59138	25983123 6940 229083 237036 1754 1800 185 -3.8612644672394 2.5 -22.60000038147 192.41890129699
59137	25990063 6746 229032 237036 1753.75 1800 186 0 15.64999961853 1122.7730622441 14078.761756961
59136	25996809 6918 228981 237036 1753.5 1800 187 483.14999389648 483.14999389648 90349.048858643 43652142.404606
59135	26003727 6881 228981 237036 1753.5 1800 187 184.17810058594 465.20153808594 74053.508392334 30911646.69703
59146	26010608 5669 229818 237036 1757.75 1800 170 0.973 10.756497587458 392.64386591624 1782.9420882068
59145	26016277 6006 229818 237036 1757.75 1800 170 -3.8754501342773 2.5 15.89999961853 333.59232508432
59144	26022283 6088 229769 237036 1757.5 1800 171 0 14.39999961853 1263.9381059855 14084.577613689
59143	26028371 6352 229720 237036 1757.25 1800 172 486.85000610352 785.82187652588 101622.25357056 61405468.871143
59142	26034723 6360 229720 237036 1757.25 1800 172 465.00723266602 483.14999389648 82999.302612305 40052800.683726
59153	26041083 4907 230666 237036 1762.25 1800 152 0.973 12.099024792222 321.6510050079 1637.2674881744
59152	26045990 5468 230666 237036 1762.25 1800 152 -3.9745378494263 2.5 -21.699831008911 209.94166363987
59151	26051458 5634 230619 237036 1762 1800 153 0 16.27499961853 1094.7081275713 13279.873902676
59150	26057092 5697 230572 237036 1761.75 1800 154 483.14999389648 483.14999389648 74405.099060059 35948823.156735
59149	26062789 5661 230572 237036 1761.75 1800 154 184.17810058594 458.24310302734 58062.201782227 23183710.880435
59160	26068450 4008 231876 237036 1769.25 1800 124 0.973 11.648172402475 300.39656422815 1560.8852616257
59159	26072458 4051 231876 237036 1769.25 1800 124 -9.5613880157471 2.5 -22.60000038147 366.51478787926
59158	26076509 4087 231835 237036 1769 1800 125 0 15.64999961853 1148.2851479053 16132.104772495
59157	26080596 4626 231793 237036 1768.75 1800 126 184.17810058594 471.60000610352 46593.312194824 18542721.682782
59156	26085222 4661 231793 237036 1768.75 1800 126 486.85000610352 486.85000610352 61343.100769043 29864888.983817
59167	26089883 3715 232085 237036 1770.5 1800 119 0.973 11.200708441096 254.91191717864 1257.6689662746
59166	26093598 4407 232085 237036 1770.5 1800 119 -3.8637080192566 2.5 -21.486553668976 174.5924685814
59165	26098005 4414 232042 237036 1770.25 1800 120 0 15.02499961853 1063.119953867 12657.247679189
59164	26102419 4475 231999 237036 1770 1800 121 483.14999389648 483.14999389648 58461.149261475 28245503.908863
59163	26106894 4447 231999 237036 1770 1800 121 184.17810058594 450.22802734375 42462.465362549 15890745.716146
59174	26111341 3610 232299 237036 1771.75 1800 114 0.97223939240464 11.648172402475 269.92521258774 1405.6289466761
59173	26114951 4213 232299 237036 1771.75 1800 114 -3.8228931427002 2.5 -22.60000038147 189.77044072683
59172	26119164 4217 232256 237036 1771.5 1800 115 0 15.64999961853 1091.6560965776 13655.481153311
59171	26123381 4292 232213 237036 1771.25 1800 116 486.85000610352 486.85000610352 56474.600708008 27494659.699387
59170	26127673 4280 232213 237036 1771.25 1800 116 512.83169555664 785.82187652588 71698.376655579 45314516.240574
59181	26131953 3708 232432 237036 1772.5 1800 111 0.973 11.648172402475 289.68694267101 1483.3740111407
59180	26135661 4056 232432 237036 1772.5 1800 111 -4.5 2.5 -15.501113414764 284.33287986672
59179	26139717 4124 232387 237036 1772.25 1800 112 1.7747217416763 15.789102554321 1133.0027424097 14824.666238505
59178	26143841 4179 232342 237036 1772 1800 113 486.85000610352 486.85000610352 55014.050689697 26783590.914058
59177	26148020 4166 232342 237036 1772 1800 113 525.76861572266 808.82032012939 72192.647918701 47167183.333518
59188	26152186 3254 232916 237036 1775.25 1800 100 0.97223939240464 11.648172402475 259.50877326075 1403.182543867
59187	26155440 3728 232916 237036 1775.25 1800 100 -2.7828521728516 2.5 -15.84416103363 185.89494098799
59186	26159168 3717 232871 237036 1775 1800 101 1.6889598369598 15.64999961853 1108.0915220976 14583.69913528
59185	26162885 3746 232826 237036 1774.75 1800 102 184.17810058594 460.79071044922 34828.910003662 12794315.739405
59184	26166631 3773 232826 237036 1774.75 1800 102 486.85000610352 486.85000610352 49658.700622559 24176338.701185
59195	26170404 3016 233563 237036 1779 1800 85 0.973 11.200708441096 263.14629165237 1409.0132946283
59194	26173420 3131 233563 237036 1779 1800 85 -3.3912658691406 2.5 13.39999961853 171.07963954876
59193	26176551 3122 233520 237036 1778.75 1800 86 5.6500000953674 15.151787757874 1171.7395792007 16466.54723861
59192	26179673 3205 233477 237036 1778.5 1800 87 495.70062255859 785.82187652588 56328.846748352 37187832.716738
59191	26182878 3218 233477 237036 1778.5 1800 87 483.14999389648 483.55355834961 42034.550201416 20309234.774428
59202	26186096 2509 233906 237036 1781 1800 77 0.973 11.200708441096 213.18567673756 1213.6939144543
59201	26188605 2765 233906 237036 1781 1800 77 -1.5797843933105 2.5 6.4715347290039 126.10470508875
59200	26191370 2873 233861 237036 1780.75 1800 78 5.6500000953674 15.02499961853 947.65921926498 12081.511757938
59199	26194243 2922 233818 237036 1780.5 1800 79 486.85000610352 486.85000610352 38461.150482178 18724811.346996
59198	26197165 2914 233818 237036 1780.5 1800 79 551.22500610352 785.82187652588 52729.951881409 35644790.552619
59209	26200079 2598 233951 237036 1781.25 1800 76 0.973 11.648172402475 237.80106592969 1399.145620392
59208	26202677 2654 233951 237036 1781.25 1800 76 -2.8439826965332 2.5 3.6303939819336 170.75575698089
59207	26205331 2830 233906 237036 1781 1800 77 5.6500000953674 15.722982406616 953.00119447708 12601.083046773
59206	26208161 2859 233861 237036 1780.75 1800 78 184.17810058594 420.55575561523 23762.267669678 7702969.3800731
59205	26211020 2885 233861 237036 1780.75 1800 78 486.85000610352 486.85000610352 37974.300476074 18487788.418553
59216	26213905 2080 234729 237036 1785.75 1800 58 0.973 11.200708441096 201.35271164401 1205.7158581956
59215	26215985 2078 234729 237036 1785.75 1800 58 -2.5287246704102 2.5 31.228559494019 101.34645485925
59214	26218063 2171 234686 237036 1785.5 1800 59 5.6500000953674 15.02499961853 800.87873744965 11239.668051215
59213	26220234 2220 234643 237036 1785.25 1800 60 486.85000610352 486.85000610352 29211.000366211 14221375.70658
59212	26222454 2213 234643 237036 1785.25 1800 60 590.14788818359 785.82187652588 41807.328117371 29356382.566821
59223	26224667 1810 234988 237036 1787.25 1800 52 0.973 12.099024792222 209.39509765341 1466.7600381815
59222	26226477 1825 234988 237036 1787.25 1800 52 -1.4839134216309 2.5 33.482412338257 114.47218092721
59221	26228302 1945 234945 237036 1787 1800 53 5.6500000953674 16.419544219971 757.18700695038 11321.824424846
59220	26230247 1972 234901 237036 1786.75 1800 54 184.17810058594 368.84875488281 14383.062286377 4015906.3312121
59219	26232219 1997 234901 237036 1786.75 1800 54 486.85000610352 486.85000610352 26289.90032959 12799238.135922
59230	26234216 1428 235519 237036 1790.5 1800 39 0.973 11.648172402475 179.06331695638 1278.7718222
59229	26235644 1335 235519 237036 1790.5 1800 39 -0.37222290039062 2.5 38.513105392456 100.31667326848
59228	26236979 1469 235478 237036 1790.25 1800 40 5.6500000953674 15.64999961853 533.55407238007 7490.2520704617
59227	26238448 1515 235437 237036 1790 1800 41 483.14999389648 483.14999389648 19809.149749756 9570790.5806891
59226	26239963 1498 235437 237036 1790 1800 41 184.17810058594 312.43841552734 9821.4569091797 2420199.9294836
59237	26241461 727 236262 237036 1795.25 1800 20 0.973 11.648172402475 139.40441556015 1195.7283701435
59236	26242188 568 236262 237036 1795.25 1800 20 -0.37222290039062 2.5 38.982206344604 100.28496976931
59235	26242756 765 236223 237036 1795 1800 21 5.6500000953674 15.64999961853 242.924451828 3044.6841026023
59234	26243521 813 236184 237036 1794.75 1800 22 486.85000610352 486.85000610352 10710.700134277 5214504.4257459
59233	26244334 813 236184 237036 1794.75 1800 22 730.26779174805 785.82187652588 16801.348976135 12837838.500506
59244	26245147 589 236419 237036 1796.25 1800 16 5.2162187258585 11.648172402475 134.25053707584 1188.8536053759
59243	26245736 412 236419 237036 1796.25 1800 16 2.4999980926514 2.5 39.999998092651 99.99999046326
59242	26246148 617 236380 237036 1796 1800 17 5.6500000953674 15.64999961853 181.04999542236 2087.5573869991
59241	26246765 665 236340 237036 1795.75 1800 18 483.14999389648 483.14999389648 8696.6998901367 4201810.4988391
59240	26247430 648 236340 237036 1795.75 1800 18 184.17810058594 224.27813720703 3602.9310913086 724053.53529534
59251	26248078 248 236776 237036 1798.5 1800 7 0.973 6.1766568205517 26.95221430333 130.46736891691
59250	26248326 181 236776 237036 1798.5 1800 7 -2.2173595428467 2.5 8.2826404571533 28.666683342253
59249	26248507 296 236733 237036 1798.25 1800 8 5.6500000953674 7.7206602096558 50.623961448669 324.22524851503
59248	26248803 331 236692 237036 1798 1800 9 486.85000610352 486.85000610352 4381.6500549316 2133206.3559869
59247	26249134 331 236692 237036 1798 1800 9 786.60333251953 797.07032012939 7132.9402084351 5653320.1544474
59258	26249465 220 236819 237036 1798.75 1800 6 5.2162187258585 7.303684162087 37.542735715336 237.95938883636
59257	26249685 161 236819 237036 1798.75 1800 6 2.4999980926514 2.5 14.999998092651 37.49999046326
59256	26249846 258 236776 237036 1798.5 1800 7 5.6500000953674 9.3999996185303 52.674999237061 407.31685994148
59255	26250104 296 236733 237036 1798.25 1800 8 775.47188568115 785.82187652588 6253.0844192505 4887736.9532574
59254	26250400 296 236733 237036 1798.25 1800 8 483.14999389648 483.14999389648 3865.1999511719 1867471.3328174
59265	26250696 148 236906 237036 1799.25 1800 4 5.2162187258585 6.4635356930995 23.356389703243 137.24455235531
59264	26250844 112 236906 237036 1799.25 1800 4 2.4999980926514 2.5 9.9999980926514 24.99999046326
59263	26250956 183 236863 237036 1799 1800 5 5.6500000953674 8.1499996185303 34.5 241.95624880791
59262	26251139 221 236819 237036 1798.75 1800 6 486.85000610352 486.85000610352 2921.1000366211 1422137.570658
59261	26251360 221 236819 237036 1798.75 1800 6 764.36953735352 770.64453887939 4608.9609909058 3540452.3377011
54896	26251581 642 0 237035 0 1800 31 0 34 672 16036
54897	26252223 660 0 237035 0 1800 31 0 251 3912 678494
