file 29454288 1591383388                                        
version 2
run nodebug-4-20200605-14:51:14-11144
attr configname nodebug
attr datetime 20200605-14:51:14
attr experiment nodebug
attr inifile omnetpp.ini
attr iterationvars ""
attr iterationvars2 $repetition=4
attr measurement ""
attr network "\"org.car2x.veins.modules.application.ExtTraCIScenarioManagerLaunchd.IntersectionExampleScenario\""
attr processid 11144
attr repetition 4
attr replication #4
attr resultdir results
attr runnumber 4
attr seedset 4
param **.coreDebug false
param **.debug false
param *.**.nic.mac1609_4.bitrate 18Mbps
param *.**.nic.mac1609_4.txPower 20mW
param *.**.nic.mac1609_4.useServiceChannel false
param *.**.nic.phy80211p.analogueModels "xmldoc(\"config.xml\")"
param *.**.nic.phy80211p.decider "xmldoc(\"config.xml\")"
param *.**.nic.phy80211p.sensitivity -89dBm
param *.**.nic.phy80211p.thermalNoise -110dBm
param *.**.nic.phy80211p.usePropagationDelay true
param *.**.nic.phy80211p.useThermalNoise true
param *.annotations.draw false
param *.connectionManager.alpha 2.0
param *.connectionManager.carrierFrequency "5.890e9 Hz"
param *.connectionManager.pMax 20mW
param *.connectionManager.sat -89dBm
param *.connectionManager.sendDirect true
param *.manager.autoShutdown true
param *.manager.host "\"localhost\""
param *.manager.launchConfig "xmldoc(\"paramics.launchd.xml\")"
param *.manager.margin 25
param *.manager.moduleDisplayString "\"\""
param *.manager.moduleName "\"node\""
param *.manager.moduleType "\"org.car2x.veins.nodes.Car\""
param *.manager.port 9999
param *.manager.updateInterval 250ms
param *.node[*0].veinsmobility.accidentCount 0
param *.node[*0].veinsmobility.accidentDuration 30s
param *.node[*0].veinsmobility.accidentStart 75s
param *.node[*].appl.LiderSelectZoneRadio 55.0
param *.node[*].appl.ShareDataZoneRadio 110.0
param *.node[*].appl.TiempoSemaforo 30.0
param *.node[*].appl.beaconInterval 1s
param *.node[*].appl.beaconPriority 3
param *.node[*].appl.dataOnSch false
param *.node[*].appl.dataPriority 2
param *.node[*].appl.debug false
param *.node[*].appl.headerLength "256 bit"
param *.node[*].appl.maxOffset 0.005s
param *.node[*].appl.sendBeacons false
param *.node[*].appl.sendData true
param *.node[*].applType "\"Dummy\""
param *.node[*].mobilityType "\"TraCIMobility\""
param *.node[*].mobilityType.debug true
param *.node[*].veinsmobility.x 0
param *.node[*].veinsmobility.y 0
param *.node[*].veinsmobility.z 1.895
param *.node[*].veinsmobilityType "\"org.car2x.veins.modules.mobility.traci.TraCIMobility\""
param *.node[*].veinsmobilityType.debug true
param *.playgroundSizeX 8500m
param *.playgroundSizeY 8500m
param *.playgroundSizeZ 50m
param *.world.use2D false
param *.world.useTorus false

vector 4110  IntersectionExampleScenario.manager  vehiclesinsim  ETV
attr type  int
vector 4111  IntersectionExampleScenario.manager  realtime  ETV
attr type  int
attr unit  s
vector 4114  IntersectionExampleScenario.node[0].veinsmobility  posx  ETV
vector 4115  IntersectionExampleScenario.node[0].veinsmobility  posy  ETV
vector 4121  IntersectionExampleScenario.node[1].veinsmobility  posx  ETV
vector 4122  IntersectionExampleScenario.node[1].veinsmobility  posy  ETV
vector 4116  IntersectionExampleScenario.node[0].veinsmobility  speed  ETV
vector 4117  IntersectionExampleScenario.node[0].veinsmobility  acceleration  ETV
vector 4118  IntersectionExampleScenario.node[0].veinsmobility  co2emission  ETV
vector 4123  IntersectionExampleScenario.node[1].veinsmobility  speed  ETV
vector 4124  IntersectionExampleScenario.node[1].veinsmobility  acceleration  ETV
vector 4125  IntersectionExampleScenario.node[1].veinsmobility  co2emission  ETV
vector 4128  IntersectionExampleScenario.node[2].veinsmobility  posx  ETV
vector 4129  IntersectionExampleScenario.node[2].veinsmobility  posy  ETV
vector 4130  IntersectionExampleScenario.node[2].veinsmobility  speed  ETV
vector 4131  IntersectionExampleScenario.node[2].veinsmobility  acceleration  ETV
vector 4132  IntersectionExampleScenario.node[2].veinsmobility  co2emission  ETV
vector 4135  IntersectionExampleScenario.node[3].veinsmobility  posx  ETV
vector 4136  IntersectionExampleScenario.node[3].veinsmobility  posy  ETV
vector 4137  IntersectionExampleScenario.node[3].veinsmobility  speed  ETV
vector 4138  IntersectionExampleScenario.node[3].veinsmobility  acceleration  ETV
vector 4139  IntersectionExampleScenario.node[3].veinsmobility  co2emission  ETV
vector 4142  IntersectionExampleScenario.node[4].veinsmobility  posx  ETV
vector 4143  IntersectionExampleScenario.node[4].veinsmobility  posy  ETV
vector 4144  IntersectionExampleScenario.node[4].veinsmobility  speed  ETV
vector 4145  IntersectionExampleScenario.node[4].veinsmobility  acceleration  ETV
vector 4146  IntersectionExampleScenario.node[4].veinsmobility  co2emission  ETV
vector 4149  IntersectionExampleScenario.node[5].veinsmobility  posx  ETV
vector 4150  IntersectionExampleScenario.node[5].veinsmobility  posy  ETV
vector 4151  IntersectionExampleScenario.node[5].veinsmobility  speed  ETV
vector 4152  IntersectionExampleScenario.node[5].veinsmobility  acceleration  ETV
vector 4153  IntersectionExampleScenario.node[5].veinsmobility  co2emission  ETV
vector 4156  IntersectionExampleScenario.node[6].veinsmobility  posx  ETV
vector 4157  IntersectionExampleScenario.node[6].veinsmobility  posy  ETV
vector 4158  IntersectionExampleScenario.node[6].veinsmobility  speed  ETV
vector 4159  IntersectionExampleScenario.node[6].veinsmobility  acceleration  ETV
vector 4160  IntersectionExampleScenario.node[6].veinsmobility  co2emission  ETV
vector 4163  IntersectionExampleScenario.node[7].veinsmobility  posx  ETV
vector 4164  IntersectionExampleScenario.node[7].veinsmobility  posy  ETV
vector 4170  IntersectionExampleScenario.node[8].veinsmobility  posx  ETV
vector 4171  IntersectionExampleScenario.node[8].veinsmobility  posy  ETV
vector 4165  IntersectionExampleScenario.node[7].veinsmobility  speed  ETV
vector 4172  IntersectionExampleScenario.node[8].veinsmobility  speed  ETV
vector 4166  IntersectionExampleScenario.node[7].veinsmobility  acceleration  ETV
vector 4167  IntersectionExampleScenario.node[7].veinsmobility  co2emission  ETV
vector 4173  IntersectionExampleScenario.node[8].veinsmobility  acceleration  ETV
vector 4174  IntersectionExampleScenario.node[8].veinsmobility  co2emission  ETV
vector 4177  IntersectionExampleScenario.node[9].veinsmobility  posx  ETV
vector 4178  IntersectionExampleScenario.node[9].veinsmobility  posy  ETV
vector 4179  IntersectionExampleScenario.node[9].veinsmobility  speed  ETV
vector 4180  IntersectionExampleScenario.node[9].veinsmobility  acceleration  ETV
vector 4181  IntersectionExampleScenario.node[9].veinsmobility  co2emission  ETV
vector 4184  IntersectionExampleScenario.node[10].veinsmobility  posx  ETV
vector 4185  IntersectionExampleScenario.node[10].veinsmobility  posy  ETV
vector 4186  IntersectionExampleScenario.node[10].veinsmobility  speed  ETV
vector 4187  IntersectionExampleScenario.node[10].veinsmobility  acceleration  ETV
vector 4188  IntersectionExampleScenario.node[10].veinsmobility  co2emission  ETV
vector 4191  IntersectionExampleScenario.node[11].veinsmobility  posx  ETV
vector 4192  IntersectionExampleScenario.node[11].veinsmobility  posy  ETV
vector 4193  IntersectionExampleScenario.node[11].veinsmobility  speed  ETV
vector 4194  IntersectionExampleScenario.node[11].veinsmobility  acceleration  ETV
vector 4195  IntersectionExampleScenario.node[11].veinsmobility  co2emission  ETV
vector 4198  IntersectionExampleScenario.node[12].veinsmobility  posx  ETV
vector 4199  IntersectionExampleScenario.node[12].veinsmobility  posy  ETV
vector 4200  IntersectionExampleScenario.node[12].veinsmobility  speed  ETV
vector 4201  IntersectionExampleScenario.node[12].veinsmobility  acceleration  ETV
vector 4202  IntersectionExampleScenario.node[12].veinsmobility  co2emission  ETV
vector 4205  IntersectionExampleScenario.node[13].veinsmobility  posx  ETV
vector 4206  IntersectionExampleScenario.node[13].veinsmobility  posy  ETV
vector 4207  IntersectionExampleScenario.node[13].veinsmobility  speed  ETV
vector 4212  IntersectionExampleScenario.node[14].veinsmobility  posx  ETV
vector 4213  IntersectionExampleScenario.node[14].veinsmobility  posy  ETV
vector 4208  IntersectionExampleScenario.node[13].veinsmobility  acceleration  ETV
vector 4209  IntersectionExampleScenario.node[13].veinsmobility  co2emission  ETV
vector 4214  IntersectionExampleScenario.node[14].veinsmobility  speed  ETV
vector 4215  IntersectionExampleScenario.node[14].veinsmobility  acceleration  ETV
vector 4216  IntersectionExampleScenario.node[14].veinsmobility  co2emission  ETV
vector 4219  IntersectionExampleScenario.node[15].veinsmobility  posx  ETV
vector 4220  IntersectionExampleScenario.node[15].veinsmobility  posy  ETV
vector 4221  IntersectionExampleScenario.node[15].veinsmobility  speed  ETV
vector 4222  IntersectionExampleScenario.node[15].veinsmobility  acceleration  ETV
vector 4223  IntersectionExampleScenario.node[15].veinsmobility  co2emission  ETV
vector 4226  IntersectionExampleScenario.node[16].veinsmobility  posx  ETV
vector 4227  IntersectionExampleScenario.node[16].veinsmobility  posy  ETV
vector 4228  IntersectionExampleScenario.node[16].veinsmobility  speed  ETV
vector 4229  IntersectionExampleScenario.node[16].veinsmobility  acceleration  ETV
vector 4230  IntersectionExampleScenario.node[16].veinsmobility  co2emission  ETV
vector 4233  IntersectionExampleScenario.node[17].veinsmobility  posx  ETV
vector 4234  IntersectionExampleScenario.node[17].veinsmobility  posy  ETV
vector 4235  IntersectionExampleScenario.node[17].veinsmobility  speed  ETV
vector 4236  IntersectionExampleScenario.node[17].veinsmobility  acceleration  ETV
vector 4237  IntersectionExampleScenario.node[17].veinsmobility  co2emission  ETV
4139	10006 4561 66 2748 3.25 40.25 149 0.973 12.099024792222 489.0549849157 2759.7990548981
4138	14567 4178 66 2748 3.25 40.25 149 -3.3615646362305 2.5 41.227170944214 211.90550692683
4137	18745 4447 57 2748 3 40.25 150 5.6500000953674 16.27499961853 2215.6485786438 33537.560062301
4136	23192 4731 48 2748 2.75 40.25 151 486.85000610352 486.85000610352 73514.350921631 35790462.194892
4135	27923 4724 48 2748 2.75 40.25 151 237.31915283203 785.82187652588 78917.34778595 45240598.539291
vector 4240  IntersectionExampleScenario.node[18].veinsmobility  posx  ETV
vector 4241  IntersectionExampleScenario.node[18].veinsmobility  posy  ETV
vector 4242  IntersectionExampleScenario.node[18].veinsmobility  speed  ETV
4132	32876 4669 41 2792 2.5 40.75 154 0.973 11.36141391502 482.61877404467 2575.3967529102
4131	37545 4243 41 2792 2.5 40.75 154 -3.8108901977539 2.5 37.32285118103 267.79954215026
4130	41788 4538 34 2792 2.25 40.75 155 5.6500000953674 15.25 2070.5094165802 28897.824113552
4129	46326 4877 27 2792 2 40.75 156 235.89556884766 483.14999389648 66990.425567627 29694879.6672
4128	51203 4861 27 2792 2 40.75 156 212.90466308594 483.14999389648 63781.280944824 27436943.43569
vector 4243  IntersectionExampleScenario.node[18].veinsmobility  acceleration  ETV
vector 4244  IntersectionExampleScenario.node[18].veinsmobility  co2emission  ETV
4118	56231 4968 12 2907 1.25 42 164 0.973 11.54047740176 515.48846900027 2706.8927525773
4117	61199 4713 12 2907 1.25 42 164 -4.5 2.5 37.32285118103 287.30668707997
4116	65912 4924 7 2907 1 42 165 5.6500000953674 15.5 2219.5433063507 30909.758768636
4115	70836 5184 4 2907 0.75 42 166 483.14999389648 483.14999389648 80202.898986816 38750030.155961
4114	76020 5154 4 2907 0.75 42 166 184.17810058594 733.7046661377 73287.632720947 36843898.946929
vector 4247  IntersectionExampleScenario.node[19].veinsmobility  posx  ETV
vector 4248  IntersectionExampleScenario.node[19].veinsmobility  posy  ETV
vector 4254  IntersectionExampleScenario.node[20].veinsmobility  posx  ETV
vector 4255  IntersectionExampleScenario.node[20].veinsmobility  posy  ETV
vector 4249  IntersectionExampleScenario.node[19].veinsmobility  speed  ETV
vector 4256  IntersectionExampleScenario.node[20].veinsmobility  speed  ETV
vector 4250  IntersectionExampleScenario.node[19].veinsmobility  acceleration  ETV
vector 4251  IntersectionExampleScenario.node[19].veinsmobility  co2emission  ETV
vector 4257  IntersectionExampleScenario.node[20].veinsmobility  acceleration  ETV
vector 4258  IntersectionExampleScenario.node[20].veinsmobility  co2emission  ETV
4125	81966 5101 17 3038 1.5 43.25 168 0.973 10.65035628006 531.3808519795 2633.3821227809
4124	87067 5179 17 3038 1.5 43.25 168 -4.5 2.5 40.088129043579 231.05051146037
4123	92246 5089 12 3038 1.25 43.25 169 5.6500000953674 15.690281867981 2314.3787884712 32846.9155465
4122	97335 5316 7 3038 1 43.25 170 483.14999389648 483.14999389648 82135.498962402 39683765.822369
4121	102651 5298 7 3038 1 43.25 170 159.76721191406 733.33889770508 72768.13899231 36105416.784514
vector 4261  IntersectionExampleScenario.node[21].veinsmobility  posx  ETV
vector 4262  IntersectionExampleScenario.node[21].veinsmobility  posy  ETV
vector 4263  IntersectionExampleScenario.node[21].veinsmobility  speed  ETV
vector 4264  IntersectionExampleScenario.node[21].veinsmobility  acceleration  ETV
vector 4265  IntersectionExampleScenario.node[21].veinsmobility  co2emission  ETV
vector 4268  IntersectionExampleScenario.node[22].veinsmobility  posx  ETV
vector 4269  IntersectionExampleScenario.node[22].veinsmobility  posy  ETV
vector 4270  IntersectionExampleScenario.node[22].veinsmobility  speed  ETV
vector 4271  IntersectionExampleScenario.node[22].veinsmobility  acceleration  ETV
vector 4272  IntersectionExampleScenario.node[22].veinsmobility  co2emission  ETV
vector 4275  IntersectionExampleScenario.node[23].veinsmobility  posx  ETV
vector 4276  IntersectionExampleScenario.node[23].veinsmobility  posy  ETV
vector 4277  IntersectionExampleScenario.node[23].veinsmobility  speed  ETV
4160	108970 4727 361 3657 10.5 48.5 153 0.973 11.200708441096 457.69708325379 2345.243557123
4159	113697 4443 361 3657 10.5 48.5 153 -3.6518669128418 2.5 35.964826583862 215.22546298907
4158	118140 4618 346 3657 10.25 48.5 154 5.6500000953674 15.02499961853 2081.2941303253 28876.43931601
4157	122758 4919 331 3657 10 48.5 155 235.39141845703 486.85000610352 66632.639251709 29622526.282555
4156	127677 4916 331 3657 10 48.5 155 482.9548034668 753.92188262939 86636.637550354 49787726.352363
vector 4278  IntersectionExampleScenario.node[23].veinsmobility  acceleration  ETV
vector 4279  IntersectionExampleScenario.node[23].veinsmobility  co2emission  ETV
4146	132760 5208 259 3954 8.5 50.75 170 0.973 11.36141391502 545.72042004144 2802.3601729599
4145	137968 4902 259 3954 8.5 50.75 170 -4.5 2.5 37.32285118103 401.23767173368
4144	142870 5112 248 3954 8.25 50.75 171 5.6500000953674 15.25 2190.4000654221 29764.086947968
4143	147982 5431 237 3954 8 50.75 172 486.85000610352 734.9358215332 92179.990631104 50379415.771986
4142	153413 5436 237 3954 8 50.75 172 486.71072387695 785.82187652588 99557.581939697 59611866.739129
vector 4282  IntersectionExampleScenario.node[24].veinsmobility  posx  ETV
vector 4283  IntersectionExampleScenario.node[24].veinsmobility  posy  ETV
vector 4289  IntersectionExampleScenario.node[25].veinsmobility  posx  ETV
vector 4290  IntersectionExampleScenario.node[25].veinsmobility  posy  ETV
vector 4284  IntersectionExampleScenario.node[24].veinsmobility  speed  ETV
vector 4285  IntersectionExampleScenario.node[24].veinsmobility  acceleration  ETV
vector 4286  IntersectionExampleScenario.node[24].veinsmobility  co2emission  ETV
vector 4291  IntersectionExampleScenario.node[25].veinsmobility  speed  ETV
vector 4292  IntersectionExampleScenario.node[25].veinsmobility  acceleration  ETV
vector 4293  IntersectionExampleScenario.node[25].veinsmobility  co2emission  ETV
4153	159641 5292 318 4241 9.75 52.75 173 0.973 11.00486315618 491.81255640432 2242.6017398621
4152	164933 5155 318 4241 9.75 52.75 173 -3.6241035461426 2.5 35.795072555542 199.23942650939
4151	170088 5260 305 4241 9.5 52.75 174 5.6500000953674 14.751726150513 2293.3223114014 31145.167424155
4150	175348 5549 292 4241 9.25 52.75 175 236.02984619141 486.85000610352 76389.415466309 34375207.212649
4149	180897 5545 292 4241 9.25 52.75 175 482.9358215332 807.09531402588 102344.25879669 62172002.238045
4174	186442 5327 489 4621 12.5 55.5 173 0.973 11.200708441096 526.29109278633 2645.9432560908
4173	191769 4874 489 4621 12.5 55.5 173 -31.555631637573 4 35.964826583862 1325.5558194502
4172	196643 5290 470 4621 12.25 55.5 174 0 15.02499961853 2169.8670506477 29832.300944055
4171	201933 5560 451 4621 12 55.5 175 236.9248046875 483.14999389648 76055.66204834 34033195.445231
4170	207493 5538 451 4621 12 55.5 175 184.17810058594 483.37014770508 70279.060516357 30047636.553434
vector 4296  IntersectionExampleScenario.node[26].veinsmobility  posx  ETV
vector 4297  IntersectionExampleScenario.node[26].veinsmobility  posy  ETV
vector 4303  IntersectionExampleScenario.node[27].veinsmobility  posx  ETV
vector 4304  IntersectionExampleScenario.node[27].veinsmobility  posy  ETV
vector 4298  IntersectionExampleScenario.node[26].veinsmobility  speed  ETV
vector 4305  IntersectionExampleScenario.node[27].veinsmobility  speed  ETV
vector 4299  IntersectionExampleScenario.node[26].veinsmobility  acceleration  ETV
vector 4300  IntersectionExampleScenario.node[26].veinsmobility  co2emission  ETV
vector 4306  IntersectionExampleScenario.node[27].veinsmobility  acceleration  ETV
vector 4307  IntersectionExampleScenario.node[27].veinsmobility  co2emission  ETV
vector 4310  IntersectionExampleScenario.node[28].veinsmobility  posx  ETV
vector 4311  IntersectionExampleScenario.node[28].veinsmobility  posy  ETV
vector 4312  IntersectionExampleScenario.node[28].veinsmobility  speed  ETV
vector 4313  IntersectionExampleScenario.node[28].veinsmobility  acceleration  ETV
vector 4314  IntersectionExampleScenario.node[28].veinsmobility  co2emission  ETV
vector 4317  IntersectionExampleScenario.node[29].veinsmobility  posx  ETV
vector 4318  IntersectionExampleScenario.node[29].veinsmobility  posy  ETV
vector 4319  IntersectionExampleScenario.node[29].veinsmobility  speed  ETV
vector 4320  IntersectionExampleScenario.node[29].veinsmobility  acceleration  ETV
vector 4321  IntersectionExampleScenario.node[29].veinsmobility  co2emission  ETV
vector 4324  IntersectionExampleScenario.node[30].veinsmobility  posx  ETV
vector 4325  IntersectionExampleScenario.node[30].veinsmobility  posy  ETV
vector 4326  IntersectionExampleScenario.node[30].veinsmobility  speed  ETV
vector 4327  IntersectionExampleScenario.node[30].veinsmobility  acceleration  ETV
vector 4328  IntersectionExampleScenario.node[30].veinsmobility  co2emission  ETV
vector 4331  IntersectionExampleScenario.node[31].veinsmobility  posx  ETV
vector 4332  IntersectionExampleScenario.node[31].veinsmobility  posy  ETV
vector 4333  IntersectionExampleScenario.node[31].veinsmobility  speed  ETV
vector 4334  IntersectionExampleScenario.node[31].veinsmobility  acceleration  ETV
vector 4335  IntersectionExampleScenario.node[31].veinsmobility  co2emission  ETV
vector 4338  IntersectionExampleScenario.node[32].veinsmobility  posx  ETV
vector 4339  IntersectionExampleScenario.node[32].veinsmobility  posy  ETV
vector 4340  IntersectionExampleScenario.node[32].veinsmobility  speed  ETV
vector 4341  IntersectionExampleScenario.node[32].veinsmobility  acceleration  ETV
vector 4342  IntersectionExampleScenario.node[32].veinsmobility  co2emission  ETV
4209	215803 4890 1825 6577 29.5 69 159 0.973 11.810082123732 508.49538687659 2854.0891032743
4208	220693 4601 1825 6577 29.5 69 159 -3.5987892150879 2.5 38.511121749878 289.97413352837
4207	225294 4791 1804 6577 29.25 69 160 5.6500000953674 15.875 2187.4261054993 31251.807394893
4206	230085 5129 1783 6577 29 69 161 184.17810058594 483.33880615234 63994.011108398 27176069.18173
4205	235214 5130 1783 6577 29 69 161 486.85000610352 733.91084289551 86585.107162476 47495228.222459
vector 4345  IntersectionExampleScenario.node[33].veinsmobility  posx  ETV
vector 4346  IntersectionExampleScenario.node[33].veinsmobility  posy  ETV
vector 4347  IntersectionExampleScenario.node[33].veinsmobility  speed  ETV
vector 4348  IntersectionExampleScenario.node[33].veinsmobility  acceleration  ETV
vector 4349  IntersectionExampleScenario.node[33].veinsmobility  co2emission  ETV
4216	240740 5115 1871 6872 30 70.75 164 0.973 11.54047740176 525.29717268085 2907.8592643834
4215	245855 4647 1871 6872 30 70.75 164 -4.5 2.5 38.171613693237 282.47734691811
4214	250502 5047 1848 6872 29.75 70.75 165 5.6500000953674 15.5 2317.4176588058 33272.806099781
4213	255549 5288 1825 6872 29.5 70.75 166 160.43438720703 734.09178161621 72276.220565796 36265475.181987
4212	260837 5313 1825 6872 29.5 70.75 166 486.85000610352 486.85000610352 80817.101013184 39345806.121537
vector 4352  IntersectionExampleScenario.node[34].veinsmobility  posx  ETV
vector 4353  IntersectionExampleScenario.node[34].veinsmobility  posy  ETV
vector 4354  IntersectionExampleScenario.node[34].veinsmobility  speed  ETV
vector 4355  IntersectionExampleScenario.node[34].veinsmobility  acceleration  ETV
vector 4356  IntersectionExampleScenario.node[34].veinsmobility  co2emission  ETV
4223	266546 4975 2161 7308 33.25 73.25 161 0.973 11.648172402475 481.49436609068 2488.6365797608
4222	271521 4774 2161 7308 33.25 73.25 161 -3.5942420959473 2.5 38.511121749878 188.27851202601
4221	276295 4946 2138 7308 33 73.25 162 5.6500000953674 15.64999961853 2317.1911325455 33783.023391838
4220	281241 5201 2115 7308 32.75 73.25 163 160.47668457031 734.6449432373 71323.873718262 35913420.705528
4219	286442 5216 2115 7308 32.75 73.25 163 486.85000610352 486.85000610352 79356.550994873 38634737.336208
vector 4359  IntersectionExampleScenario.node[35].veinsmobility  posx  ETV
vector 4360  IntersectionExampleScenario.node[35].veinsmobility  posy  ETV
vector 4361  IntersectionExampleScenario.node[35].veinsmobility  speed  ETV
vector 4362  IntersectionExampleScenario.node[35].veinsmobility  acceleration  ETV
vector 4363  IntersectionExampleScenario.node[35].veinsmobility  co2emission  ETV
vector 4366  IntersectionExampleScenario.node[36].veinsmobility  posx  ETV
vector 4367  IntersectionExampleScenario.node[36].veinsmobility  posy  ETV
vector 4368  IntersectionExampleScenario.node[36].veinsmobility  speed  ETV
vector 4369  IntersectionExampleScenario.node[36].veinsmobility  acceleration  ETV
vector 4370  IntersectionExampleScenario.node[36].veinsmobility  co2emission  ETV
vector 4373  IntersectionExampleScenario.node[37].veinsmobility  posx  ETV
vector 4374  IntersectionExampleScenario.node[37].veinsmobility  posy  ETV
vector 4375  IntersectionExampleScenario.node[37].veinsmobility  speed  ETV
vector 4376  IntersectionExampleScenario.node[37].veinsmobility  acceleration  ETV
vector 4377  IntersectionExampleScenario.node[37].veinsmobility  co2emission  ETV
4251	292846 4998 2984 9094 42.75 82.75 161 0.973 11.36141391502 500.15120072349 2632.4520983236
4250	297844 4920 2984 9094 42.75 82.75 161 -3.5862674713135 2.5 37.492597579956 272.45202530101
4249	302764 4875 2957 9094 42.5 82.75 162 5.6500000953674 15.267703056335 2187.0230822563 30778.759905623
4248	307639 5196 2930 9094 42.25 82.75 163 184.17810058594 483.33694458008 64806.900878906 27522858.870683
4247	312835 5210 2930 9094 42.25 82.75 163 486.85000610352 733.89587402344 87696.067840576 48125339.340106
4167	318045 7721 489 9329 12.5 84 287 0.973 11.90022389248 667.69854989812 3185.744233722
4166	325766 6929 489 9329 12.5 84 287 -7.0953421592712 4 39.699392318726 487.70394598836
4165	332695 7210 470 9329 12.25 84 288 0 16 2217.5203570127 32050.461543053
4164	339905 9205 451 9329 12 84 289 235.46020507812 785.82187652588 147611.62689972 79538484.472764
4163	349110 9217 451 9329 12 84 289 483.14999389648 483.14999389648 139630.34823608 67462401.898028
4286	358327 4777 4059 10316 51.5 89.25 152 0.973 11.648172402475 476.72556722631 2492.501653983
4285	363104 4186 4059 10316 51.5 89.25 152 -3.3434906005859 2.5 39.359884262085 196.83124836095
4284	367290 4673 4022 10316 51.25 89.25 153 5.6500000953674 15.64999961853 2214.5847415924 32741.77757842
4283	371963 4918 3987 10316 51 89.25 154 237.44360351562 785.82187652588 80412.387107849 46066752.950755
4282	376881 4934 3987 10316 51 89.25 154 483.14999389648 483.14999389648 74405.099060059 35948823.156735
vector 4380  IntersectionExampleScenario.node[38].veinsmobility  posx  ETV
vector 4381  IntersectionExampleScenario.node[38].veinsmobility  posy  ETV
vector 4382  IntersectionExampleScenario.node[38].veinsmobility  speed  ETV
vector 4383  IntersectionExampleScenario.node[38].veinsmobility  acceleration  ETV
vector 4384  IntersectionExampleScenario.node[38].veinsmobility  co2emission  ETV
vector 4387  IntersectionExampleScenario.node[39].veinsmobility  posx  ETV
vector 4388  IntersectionExampleScenario.node[39].veinsmobility  posy  ETV
vector 4394  IntersectionExampleScenario.node[40].veinsmobility  posx  ETV
vector 4395  IntersectionExampleScenario.node[40].veinsmobility  posy  ETV
vector 4389  IntersectionExampleScenario.node[39].veinsmobility  speed  ETV
vector 4390  IntersectionExampleScenario.node[39].veinsmobility  acceleration  ETV
vector 4391  IntersectionExampleScenario.node[39].veinsmobility  co2emission  ETV
vector 4396  IntersectionExampleScenario.node[40].veinsmobility  speed  ETV
vector 4401  IntersectionExampleScenario.node[41].veinsmobility  posx  ETV
vector 4402  IntersectionExampleScenario.node[41].veinsmobility  posy  ETV
vector 4397  IntersectionExampleScenario.node[40].veinsmobility  acceleration  ETV
vector 4398  IntersectionExampleScenario.node[40].veinsmobility  co2emission  ETV
vector 4403  IntersectionExampleScenario.node[41].veinsmobility  speed  ETV
vector 4404  IntersectionExampleScenario.node[41].veinsmobility  acceleration  ETV
vector 4405  IntersectionExampleScenario.node[41].veinsmobility  co2emission  ETV
vector 4408  IntersectionExampleScenario.node[42].veinsmobility  posx  ETV
vector 4409  IntersectionExampleScenario.node[42].veinsmobility  posy  ETV
vector 4410  IntersectionExampleScenario.node[42].veinsmobility  speed  ETV
vector 4415  IntersectionExampleScenario.node[43].veinsmobility  posx  ETV
vector 4416  IntersectionExampleScenario.node[43].veinsmobility  posy  ETV
vector 4411  IntersectionExampleScenario.node[42].veinsmobility  acceleration  ETV
vector 4412  IntersectionExampleScenario.node[42].veinsmobility  co2emission  ETV
vector 4417  IntersectionExampleScenario.node[43].veinsmobility  speed  ETV
vector 4418  IntersectionExampleScenario.node[43].veinsmobility  acceleration  ETV
vector 4419  IntersectionExampleScenario.node[43].veinsmobility  co2emission  ETV
4307	384191 5018 5140 12048 59.5 99 159 0.973 11.200708441096 454.02019127521 2190.5961140274
4306	389209 4524 5140 12048 59.5 99 159 -3.3945121765137 2.5 35.625318527222 173.50564863248
4305	393733 4944 5105 12048 59.25 99 160 5.6500000953674 15.02499961853 2209.7530469894 31019.862813876
4304	398677 5177 5070 12048 59 99 161 238.29858398438 785.82187652588 83905.765296936 47970045.691832
4303	403854 5196 5070 12048 59 99 161 483.14999389648 483.14999389648 77787.149017334 37582860.57295
vector 4422  IntersectionExampleScenario.node[44].veinsmobility  posx  ETV
vector 4423  IntersectionExampleScenario.node[44].veinsmobility  posy  ETV
vector 4424  IntersectionExampleScenario.node[44].veinsmobility  speed  ETV
vector 4425  IntersectionExampleScenario.node[44].veinsmobility  acceleration  ETV
vector 4426  IntersectionExampleScenario.node[44].veinsmobility  co2emission  ETV
4181	409446 8980 1082 12975 20.25 105.5 342 0.973 12.526453695783 775.31223785522 3828.4737267755
4180	418426 8025 1082 12975 20.25 105.5 342 -6.7300100326538 4 42.415441513062 548.76616546989
4179	426451 8213 1061 12975 20 105.5 343 0 16.86307144165 2182.2853691578 32087.439864125
4178	434664 11036 1040 12975 19.75 105.5 344 236.22290039062 483.14999389648 158452.47329712 74079849.767961
4177	445700 11083 1040 12975 19.75 105.5 344 184.17810058594 483.36395263672 150581.07122803 68084828.052051
vector 4429  IntersectionExampleScenario.node[45].veinsmobility  posx  ETV
vector 4430  IntersectionExampleScenario.node[45].veinsmobility  posy  ETV
vector 4431  IntersectionExampleScenario.node[45].veinsmobility  speed  ETV
4188	457012 8818 1438 13109 24.5 106.5 329 0.973 11.36141391502 682.72540770487 2892.3712100374
4187	465830 7806 1438 13109 24.5 106.5 329 -6.7711477279663 4 36.98334312439 450.59403005823
4186	473636 8119 1417 13109 24.25 106.5 330 0 15.25 2175.7520129681 29985.058215833
4185	481755 10627 1396 13109 24 106.5 331 486.85000610352 732.63011169434 169471.20037842 87920269.858212
4184	492382 10687 1396 13109 24 106.5 331 486.63604736328 785.82187652588 177146.13459015 97019843.830165
vector 4432  IntersectionExampleScenario.node[45].veinsmobility  acceleration  ETV
vector 4433  IntersectionExampleScenario.node[45].veinsmobility  co2emission  ETV
4195	503236 9133 1594 13242 26.5 107.5 325 0.973 11.54047740176 674.84732627838 2890.8701345097
4194	512369 9458 1594 13242 26.5 107.5 325 -3.7325999736786 2.5 37.15309715271 333.55266786036
4193	521827 9315 1575 13242 26.25 107.5 326 0 15.5 2211.3191047525 29241.924595278
4192	531142 10574 1556 13242 26 107.5 327 483.14999389648 483.14999389648 157990.04800415 76332890.728911
4191	541716 10536 1556 13242 26 107.5 327 184.17810058594 732.36245727539 148890.53790283 72005018.623433
vector 4436  IntersectionExampleScenario.node[46].veinsmobility  posx  ETV
vector 4437  IntersectionExampleScenario.node[46].veinsmobility  posy  ETV
vector 4438  IntersectionExampleScenario.node[46].veinsmobility  speed  ETV
vector 4439  IntersectionExampleScenario.node[46].veinsmobility  acceleration  ETV
vector 4440  IntersectionExampleScenario.node[46].veinsmobility  co2emission  ETV
4244	552648 8049 2815 13414 41 108.75 272 0.973 12.099024792222 650.57118787708 3143.7451998007
4243	560697 8519 2815 13414 41 108.75 272 -3.809633731842 2.5000002384186 40.548154830933 352.14788873126
4242	569216 8503 2792 13414 40.75 108.75 273 0 16.27499961853 2181.0490992945 29445.228976091
4241	577719 8885 2769 13414 40.5 108.75 274 486.85000610352 732.4066619873 141281.75790405 73905449.302439
4240	586604 8871 2769 13414 40.5 108.75 274 486.85000610352 785.82187652588 149729.76003265 83809537.071618
vector 4443  IntersectionExampleScenario.node[47].veinsmobility  posx  ETV
vector 4444  IntersectionExampleScenario.node[47].veinsmobility  posy  ETV
vector 4445  IntersectionExampleScenario.node[47].veinsmobility  speed  ETV
vector 4446  IntersectionExampleScenario.node[47].veinsmobility  acceleration  ETV
vector 4447  IntersectionExampleScenario.node[47].veinsmobility  co2emission  ETV
4230	595871 8818 2476 13690 37 110.75 296 0.973 11.54047740176 665.70022823421 2978.4021479719
4229	604689 9373 2476 13690 37 110.75 296 -3.6206319332123 2.5 41.227170944214 338.71238318125
4228	614062 9381 2455 13690 36.75 110.75 297 0 15.986813545227 2213.2147613857 29807.664932043
4227	623443 9674 2434 13690 36.5 110.75 298 483.14999389648 483.14999389648 143978.69818115 69563307.147447
4226	633117 9628 2434 13690 36.5 110.75 298 184.17810058594 732.05749511719 133027.90126038 63428592.05568
4279	642745 7410 3690 13760 48.75 111.25 251 0.973 11.648172402475 614.56820051881 2997.1072523519
4278	650155 7607 3690 13760 48.75 111.25 251 -3.9790773391724 2.5000019073486 38.511121749878 344.01284650547
4277	657762 7934 3657 13760 48.5 111.25 252 0 15.64999961853 2203.0657574944 28555.661206026
4276	665696 8227 3624 13760 48.25 111.25 253 237.84979248047 486.85000610352 114853.37423706 53245913.308051
4275	673923 8207 3624 13760 48.25 111.25 253 483.12316894531 785.82187652588 139976.87657928 79400786.303386
4202	682130 9872 1726 13795 28.25 111.5 334 0.973 10.756497587458 681.88510929109 2581.756822035
4201	692002 10553 1726 13795 28.25 111.5 334 -4.5 2.5 34.77654838562 355.75265421736
4200	702555 10507 1707 13795 28 111.5 335 0 14.483427047729 2278.5246742778 27992.675512015
4199	713062 10885 1688 13795 27.75 111.5 336 483.14999389648 732.2879486084 171228.4466095 88494977.587407
4198	723947 10864 1688 13795 27.75 111.5 336 164.94219970703 486.86264038086 141476.92687988 62071487.244057
vector 4450  IntersectionExampleScenario.node[48].veinsmobility  posx  ETV
vector 4451  IntersectionExampleScenario.node[48].veinsmobility  posy  ETV
vector 4452  IntersectionExampleScenario.node[48].veinsmobility  speed  ETV
vector 4453  IntersectionExampleScenario.node[48].veinsmobility  acceleration  ETV
vector 4454  IntersectionExampleScenario.node[48].veinsmobility  co2emission  ETV
vector 4457  IntersectionExampleScenario.node[49].veinsmobility  posx  ETV
vector 4458  IntersectionExampleScenario.node[49].veinsmobility  posy  ETV
vector 4459  IntersectionExampleScenario.node[49].veinsmobility  speed  ETV
vector 4460  IntersectionExampleScenario.node[49].veinsmobility  acceleration  ETV
vector 4461  IntersectionExampleScenario.node[49].veinsmobility  co2emission  ETV
vector 4464  IntersectionExampleScenario.node[50].veinsmobility  posx  ETV
vector 4465  IntersectionExampleScenario.node[50].veinsmobility  posy  ETV
4300	735755 6512 5140 14215 59.5 114.5 221 0.973 11.648172402475 588.87551515392 2943.3716368973
4299	742267 6795 5140 14215 59.5 114.5 221 -4.4756469726562 2.5000001192093 39.190130233765 383.02992336655
4298	749062 6916 5105 14215 59.25 114.5 222 0 15.64999961853 2192.2918129656 28795.553729109
4297	755978 7296 5070 14215 59 114.5 223 486.85000610352 734.9377746582 116785.15776062 62209681.628789
4296	763274 7288 5070 14215 59 114.5 223 486.81335449219 785.82187652588 124855.14537811 71747910.900448
vector 4471  IntersectionExampleScenario.node[51].veinsmobility  posx  ETV
vector 4472  IntersectionExampleScenario.node[51].veinsmobility  posy  ETV
vector 4466  IntersectionExampleScenario.node[50].veinsmobility  speed  ETV
vector 4467  IntersectionExampleScenario.node[50].veinsmobility  acceleration  ETV
vector 4468  IntersectionExampleScenario.node[50].veinsmobility  co2emission  ETV
vector 4473  IntersectionExampleScenario.node[51].veinsmobility  speed  ETV
vector 4478  IntersectionExampleScenario.node[52].veinsmobility  posx  ETV
vector 4479  IntersectionExampleScenario.node[52].veinsmobility  posy  ETV
vector 4474  IntersectionExampleScenario.node[51].veinsmobility  acceleration  ETV
vector 4475  IntersectionExampleScenario.node[51].veinsmobility  co2emission  ETV
vector 4480  IntersectionExampleScenario.node[52].veinsmobility  speed  ETV
vector 4481  IntersectionExampleScenario.node[52].veinsmobility  acceleration  ETV
vector 4482  IntersectionExampleScenario.node[52].veinsmobility  co2emission  ETV
4237	771598 9482 2643 14412 39 115.75 308 0.973 11.648172402475 714.48516608169 3050.3448044714
4236	781080 9983 2643 14412 39 115.75 308 -4.5 2.5 38.850629806519 473.30677644106
4235	791063 10024 2622 14412 38.75 115.75 309 0 15.64999961853 2287.6924862359 29521.104057713
4234	801087 10083 2601 14412 38.5 115.75 310 483.14999389648 734.37992858887 158345.71217346 82060383.807052
4233	811170 10035 2601 14412 38.5 115.75 310 166.078125 486.90444946289 128853.7119751 55859024.015237
4265	821205 8823 3177 14453 44.5 116 287 0.973 11.810082123732 690.56871251973 3298.9491111071
4264	830028 8773 3177 14453 44.5 116 287 -4.5 2.5 41.396924972534 500.92801704975
4263	838801 8975 3148 14453 44.25 116 288 0 16.018436431885 2092.3976219129 27885.287700253
4262	847776 9417 3119 14453 44 116 289 238.02691650391 483.14999389648 131872.86758423 61226645.562393
4261	857193 9401 3119 14453 44 116 289 206.43670654297 483.14999389648 121401.44528198 52479798.755555
4321	866594 6302 5943 14617 65 117 209 0.973 11.648172402475 584.4574032309 2823.787285663
4320	872896 6823 5943 14617 65 117 209 -4.1010284423828 2.5000019073486 39.869146347046 397.39828217168
4319	879719 6839 5904 14617 64.75 117 210 0 15.661539077759 2183.1694809943 28851.673589161
4318	886558 6928 5865 14617 64.5 117 211 486.85000610352 732.78916931152 110784.97442627 59165809.195303
4317	893486 6928 5865 14617 64.5 117 211 486.85000610352 785.82187652588 118670.70597076 68550967.90106
4258	900414 8540 2984 14658 42.75 117.25 299 0.973 11.990504229548 703.67273247897 3371.6595922568
4257	908954 8214 2984 14658 42.75 117.25 299 -4.5 2.5 39.699392318726 514.48134572925
4256	917168 8384 2957 14658 42.5 117.25 300 0 16.125 2282.2765876055 30311.568502896
4255	925552 9822 2930 14658 42.25 117.25 301 483.14999389648 483.14999389648 145428.14816284 70263608.897254
4254	935374 9802 2930 14658 42.25 117.25 301 167.16717529297 732.01956176758 129701.64100647 60594540.874379
4349	945176 5768 6786 14699 70.25 117.5 190 0.973 11.648172402475 561.38953355615 3046.7801912079
4348	950944 5749 6786 14699 70.25 117.5 190 -5.242431640625 2.5000019073486 38.850629806519 362.67507602851
4347	956693 6068 6743 14699 70 117.5 191 2.1816079616547 15.64999961853 2223.2915649414 29842.666595184
4346	962761 6335 6700 14699 69.75 117.5 192 486.85000610352 486.85000610352 93475.201171875 45508402.261055
4345	969096 6318 6700 14699 69.75 117.5 192 235.64611816406 785.82187652588 100835.92247772 57122287.533498
vector 4485  IntersectionExampleScenario.node[53].veinsmobility  posx  ETV
vector 4486  IntersectionExampleScenario.node[53].veinsmobility  posy  ETV
4314	975566 7020 5495 15288 62 121.25 238 0.973 11.36141391502 615.44147915847 3056.806150608
4313	982586 7256 5495 15288 62 121.25 238 -3.5 2.5 36.98334312439 388.98905189099
4312	989842 7344 5458 15288 61.75 121.25 239 0 15.25 2182.283246547 27135.626640465
4311	997186 7885 5421 15288 61.5 121.25 240 236.78363037109 483.14999389648 107589.65591431 49310283.275138
4310	1005071 7861 5421 15288 61.5 121.25 240 184.17810058594 483.19290161133 96954.188903809 40972580.451781
vector 4487  IntersectionExampleScenario.node[53].veinsmobility  speed  ETV
vector 4488  IntersectionExampleScenario.node[53].veinsmobility  acceleration  ETV
vector 4489  IntersectionExampleScenario.node[53].veinsmobility  co2emission  ETV
4342	1013176 6441 6536 15575 68.75 123 218 0.973 11.450879080643 573.47502745481 2915.8520814469
4341	1019617 6858 6536 15575 68.75 123 218 -2.7564125061035 2.5 37.32285118103 316.93567205848
4340	1026475 6969 6495 15575 68.5 123 219 0.42476177215576 15.375 2206.0170580447 27803.849341162
4339	1033444 7267 6453 15575 68.25 123 220 483.14999389648 732.9295501709 114819.01286316 61013659.054084
4338	1040711 7251 6453 15575 68.25 123 220 184.17810058594 486.85000610352 88477.53704834 37408794.692397
vector 4492  IntersectionExampleScenario.node[54].veinsmobility  posx  ETV
vector 4493  IntersectionExampleScenario.node[54].veinsmobility  posy  ETV
vector 4494  IntersectionExampleScenario.node[54].veinsmobility  speed  ETV
vector 4495  IntersectionExampleScenario.node[54].veinsmobility  acceleration  ETV
vector 4496  IntersectionExampleScenario.node[54].veinsmobility  co2emission  ETV
4363	1048358 5981 7659 15829 75.25 124.5 198 0.973 11.200708441096 562.21236897061 2841.1366786899
4362	1054339 6175 7659 15829 75.25 124.5 198 -3.201717376709 2.5 39.699392318726 275.31903275003
4361	1060514 6335 7614 15829 75 124.5 199 3.5469150543213 15.638792037964 2206.14726758 27812.528341145
4360	1066849 6638 7569 15829 74.75 124.5 200 483.14999389648 732.8448638916 104849.5448761 55995217.77773
4359	1073487 6617 7569 15829 74.75 124.5 200 184.17810058594 486.85000610352 79538.560058594 33444449.206881
vector 4499  IntersectionExampleScenario.node[55].veinsmobility  posx  ETV
vector 4500  IntersectionExampleScenario.node[55].veinsmobility  posy  ETV
vector 4501  IntersectionExampleScenario.node[55].veinsmobility  speed  ETV
vector 4502  IntersectionExampleScenario.node[55].veinsmobility  acceleration  ETV
vector 4503  IntersectionExampleScenario.node[55].veinsmobility  co2emission  ETV
4398	1080500 4654 10816 16360 92 127.75 144 0.973 11.990504229548 476.91417692683 2866.7324228002
4397	1085154 4545 10816 16360 92 127.75 144 -3.5154724121094 2.5000038146973 39.699392318726 226.81061181473
4396	1089699 4648 10769 16360 91.75 127.75 145 5.6500000953674 16.125 2100.0101461411 31112.774662117
4395	1094347 4931 10722 16360 91.5 127.75 146 483.14999389648 483.14999389648 70539.899108887 34081351.823917
4394	1099278 4908 10722 16360 91.5 127.75 146 213.88439941406 733.86871337891 67553.489868164 34738187.431475
4384	1104186 5157 10541 16644 90.5 129.5 157 0.973 11.413901315308 489.98719402869 2555.6014246286
4383	1109343 4986 10541 16644 90.5 129.5 157 -4.431224822998 2.5 39.869146347046 215.43970869715
4382	1114329 5110 10496 16644 90.25 129.5 158 5.6500000953674 15.947662353516 2213.2381429672 32198.891602757
4381	1119439 5365 10451 16644 90 129.5 159 483.14999389648 483.14999389648 76820.849029541 37115992.739745
4380	1124804 5341 10451 16644 90 129.5 159 184.17810058594 732.44354248047 69866.776412964 35050482.394617
4391	1130145 5814 10769 17497 91.75 135.25 175 0.973 10.65035628006 458.55941650481 1861.6625735054
4390	1135959 5318 10769 17497 91.75 135.25 175 -3.2364768981934 2.5 33.248777389526 136.83670581176
4389	1141277 5747 10722 17497 91.5 135.25 176 5.6500000953674 14.509637832642 2308.3182830811 30844.807065391
4388	1147024 5984 10676 17497 91.25 135.25 177 483.14999389648 483.14999389648 85517.548919678 41317803.238584
4387	1153008 5963 10676 17497 91.25 135.25 177 162.90466308594 735.22323608398 77127.694335938 38805401.881165
vector 4506  IntersectionExampleScenario.node[56].veinsmobility  posx  ETV
vector 4507  IntersectionExampleScenario.node[56].veinsmobility  posy  ETV
vector 4508  IntersectionExampleScenario.node[56].veinsmobility  speed  ETV
vector 4509  IntersectionExampleScenario.node[56].veinsmobility  acceleration  ETV
vector 4510  IntersectionExampleScenario.node[56].veinsmobility  co2emission  ETV
4272	1159367 10242 3500 18385 47.25 142 380 0.973 11.200708441096 729.38989006788 2912.3947073858
4271	1169609 9175 3500 18385 47.25 142 380 -7.3989152908325 4 35.795072555542 472.76116480109
4270	1178784 9410 3469 18385 47 142 381 0 15.02499961853 2218.7602114677 30427.544427599
4269	1188194 12585 3438 18385 46.75 142 382 184.17810058594 735.35032653809 176731.85836792 86121839.70262
4268	1200779 12610 3438 18385 46.75 142 382 486.85000610352 486.85000610352 185976.70233154 90542758.665224
4293	1213389 10358 4096 18504 51.75 143 366 0.973 11.36141391502 718.80276978522 2930.3467735055
4292	1223747 10065 4096 18504 51.75 143 366 -4.5 2.5 37.15309715271 393.17603978396
4291	1233812 9941 4059 18504 51.5 143 367 0 15.25 2183.467341803 29552.015434749
4290	1243753 12138 4022 18504 51.25 143 368 184.17810058594 483.14999389648 159976.97943115 71714868.950341
4289	1255891 12165 4022 18504 51.25 143 368 486.85000610352 733.16227722168 187496.34980774 96706565.550965
vector 4513  IntersectionExampleScenario.node[57].veinsmobility  posx  ETV
vector 4514  IntersectionExampleScenario.node[57].veinsmobility  posy  ETV
vector 4515  IntersectionExampleScenario.node[57].veinsmobility  speed  ETV
vector 4520  IntersectionExampleScenario.node[58].veinsmobility  posx  ETV
vector 4521  IntersectionExampleScenario.node[58].veinsmobility  posy  ETV
vector 4516  IntersectionExampleScenario.node[57].veinsmobility  acceleration  ETV
vector 4517  IntersectionExampleScenario.node[57].veinsmobility  co2emission  ETV
4328	1268604 9451 6250 18872 67 146.25 318 0.973 11.36141391502 667.32877989217 2853.7189283364
4327	1278055 9863 6250 18872 67 146.25 318 -3.9545292854309 2.5000009536743 36.643835067749 331.98938770698
4326	1287918 9716 6211 18872 66.75 146.25 319 0 15.25 2193.8458266603 28114.683049434
4325	1297634 10627 6172 18872 66.5 146.25 320 184.17810058594 483.14999389648 136113.0534668 59943496.751348
4324	1308261 10657 6172 18872 66.5 146.25 320 486.85000610352 735.30627441406 164337.48547363 85581119.238602
vector 4522  IntersectionExampleScenario.node[58].veinsmobility  speed  ETV
vector 4527  IntersectionExampleScenario.node[59].veinsmobility  posx  ETV
vector 4528  IntersectionExampleScenario.node[59].veinsmobility  posy  ETV
vector 4523  IntersectionExampleScenario.node[58].veinsmobility  acceleration  ETV
vector 4524  IntersectionExampleScenario.node[58].veinsmobility  co2emission  ETV
4335	1319314 9825 6371 18931 67.75 146.75 317 0.973 12.353032912318 743.36953246923 3420.4333252254
4334	1329139 10052 6371 18931 67.75 146.75 317 -4.5 2.5 42.585195541382 491.24555927851
4333	1339191 10141 6330 18931 67.5 146.75 318 0 16.625 2305.2373265922 31652.895410027
4332	1349332 10580 6289 18931 67.25 146.75 319 161.1796875 486.85000610352 133030.39437866 57863325.362802
4331	1359912 10633 6289 18931 67.25 146.75 319 235.72247314453 486.85000610352 147344.08670044 69187982.183816
vector 4529  IntersectionExampleScenario.node[59].veinsmobility  speed  ETV
vector 4530  IntersectionExampleScenario.node[59].veinsmobility  acceleration  ETV
vector 4531  IntersectionExampleScenario.node[59].veinsmobility  co2emission  ETV
vector 4534  IntersectionExampleScenario.node[60].veinsmobility  posx  ETV
vector 4535  IntersectionExampleScenario.node[60].veinsmobility  posy  ETV
vector 4536  IntersectionExampleScenario.node[60].veinsmobility  speed  ETV
vector 4537  IntersectionExampleScenario.node[60].veinsmobility  acceleration  ETV
vector 4538  IntersectionExampleScenario.node[60].veinsmobility  co2emission  ETV
4356	1371185 9667 7263 19370 73 150.25 310 0.973 11.36141391502 694.1728839096 3114.0086292223
4355	1380852 10128 7263 19370 73 150.25 310 -4.5 2.5 37.492597579956 436.70937463571
4354	1390980 10073 7218 19370 72.75 150.25 311 0 15.25 2212.3871107027 27967.175571856
4353	1401053 10410 7173 19370 72.5 150.25 312 175.90014648438 483.30151367188 129606.88818359 55905402.954089
4352	1411463 10416 7173 19370 72.5 150.25 312 486.85000610352 731.72500610352 160105.09632874 83278384.805198
vector 4541  IntersectionExampleScenario.node[61].veinsmobility  posx  ETV
vector 4542  IntersectionExampleScenario.node[61].veinsmobility  posy  ETV
4377	1422031 9161 8262 19633 78.5 152.5 297 0.973 11.200708441096 665.12823833947 3060.5504776678
4376	1431192 9395 8262 19633 78.5 152.5 297 -3.9745750427246 2.5 35.455564498901 399.06285532897
4375	1440587 9550 8213 19633 78.25 152.5 298 0 15.02499961853 2125.5196044715 26679.802151441
4374	1450137 10018 8164 19633 78 152.5 299 208.65472412109 735.31008911133 134249.14944458 64165329.917621
4373	1460155 10038 8164 19633 78 152.5 299 486.84997558594 486.85003662109 145568.15185547 70869855.63417
vector 4543  IntersectionExampleScenario.node[61].veinsmobility  speed  ETV
vector 4544  IntersectionExampleScenario.node[61].veinsmobility  acceleration  ETV
vector 4545  IntersectionExampleScenario.node[61].veinsmobility  co2emission  ETV
vector 4548  IntersectionExampleScenario.node[62].veinsmobility  posx  ETV
vector 4549  IntersectionExampleScenario.node[62].veinsmobility  posy  ETV
4370	1470589 8796 8023 19807 77.25 154 308 0.973 11.90022389248 730.83059250213 3522.0904118038
4369	1479385 8552 8023 19807 77.25 154 308 -4.657341003418 2.5 39.699392318726 537.58425113335
4368	1487937 8783 7976 19807 77 154 309 0 16 2235.2830075175 28280.103527245
4367	1496720 10386 7929 19807 76.75 154 310 175.67822265625 487.00482177734 125914.20703125 53329535.229897
4366	1507106 10393 7929 19807 76.75 154 310 237.35546875 486.85000610352 142728.63751221 66859884.33919
vector 4550  IntersectionExampleScenario.node[62].veinsmobility  speed  ETV
vector 4551  IntersectionExampleScenario.node[62].veinsmobility  acceleration  ETV
vector 4552  IntersectionExampleScenario.node[62].veinsmobility  co2emission  ETV
vector 4555  IntersectionExampleScenario.node[63].veinsmobility  posx  ETV
vector 4556  IntersectionExampleScenario.node[63].veinsmobility  posy  ETV
vector 4557  IntersectionExampleScenario.node[63].veinsmobility  speed  ETV
vector 4558  IntersectionExampleScenario.node[63].veinsmobility  acceleration  ETV
vector 4559  IntersectionExampleScenario.node[63].veinsmobility  co2emission  ETV
4419	1518139 7238 11965 20256 98.5 157.75 238 0.973 11.36141391502 623.2822070985 3178.2466709855
4418	1525377 7512 11965 20256 98.5 157.75 238 -3.6571063995361 2.5 36.813589096069 428.51312571055
4417	1532889 7598 11922 20256 98.25 157.75 239 0 15.25 2181.9870569743 27192.064629347
4416	1540487 8117 11879 20256 98 157.75 240 184.17810058594 483.14999389648 96926.407501221 40950235.345867
4415	1548604 8141 11879 20256 98 157.75 240 486.85000610352 733.08807373047 125225.73442078 66419030.812201
4426	1556745 6690 12774 20314 104 158.25 218 0.973 11.200708441096 588.53031334922 2931.6829291814
4425	1563435 6871 12774 20314 104 158.25 218 -2.6101570129395 2.5 38.850629806519 331.67226283202
4424	1570306 7192 12739 20314 103.75 158.25 219 0 15.388471603394 2218.4901971705 29189.951275382
4423	1577498 7409 12704 20314 103.5 158.25 220 184.17810058594 733.85342407227 96487.725265503 46523761.873884
4422	1584907 7480 12704 20314 103.5 158.25 220 486.85000610352 486.85000610352 107107.00134277 52145044.257458
vector 4562  IntersectionExampleScenario.node[64].veinsmobility  posx  ETV
vector 4563  IntersectionExampleScenario.node[64].veinsmobility  posy  ETV
vector 4564  IntersectionExampleScenario.node[64].veinsmobility  speed  ETV
vector 4565  IntersectionExampleScenario.node[64].veinsmobility  acceleration  ETV
vector 4566  IntersectionExampleScenario.node[64].veinsmobility  co2emission  ETV
4440	1592783 6452 13345 20576 108.25 160.5 210 0.973 11.436393557169 612.65571624922 3112.8684603307
4439	1599235 6799 13345 20576 108.25 160.5 210 -2.996509552002 2.5 41.566686630249 360.14988436444
4438	1606034 6836 13310 20576 108 160.5 211 1.3840441703796 16.072664260864 2193.1924687624 27859.149826696
4437	1612870 7175 13275 20576 107.75 160.5 212 179.81719970703 483.14999389648 83912.790283203 35060222.368794
4436	1620045 7205 13275 20576 107.75 160.5 212 486.85000610352 731.39183044434 110930.65078735 59013604.996132
vector 4569  IntersectionExampleScenario.node[65].veinsmobility  posx  ETV
vector 4570  IntersectionExampleScenario.node[65].veinsmobility  posy  ETV
vector 4576  IntersectionExampleScenario.node[66].veinsmobility  posx  ETV
vector 4577  IntersectionExampleScenario.node[66].veinsmobility  posy  ETV
4447	1627554 6665 13550 20808 109.75 162.5 212 0.973 11.593048990061 594.50862307936 3149.5144107199
4446	1634219 6630 13550 20808 109.75 162.5 212 -4.5 2.5 37.32285118103 423.86251573835
4445	1640849 6998 13515 20808 109.5 162.5 213 2.48397397995 15.573256492615 2306.1149213314 29363.160857503
4444	1647847 7253 13480 20808 109.25 162.5 214 161.70391845703 733.06510925293 91573.111099243 44002466.444843
4443	1655100 7277 13480 20808 109.25 162.5 214 486.85000610352 486.85000610352 104185.90130615 50722906.6868
vector 4571  IntersectionExampleScenario.node[65].veinsmobility  speed  ETV
vector 4578  IntersectionExampleScenario.node[66].veinsmobility  speed  ETV
vector 4572  IntersectionExampleScenario.node[65].veinsmobility  acceleration  ETV
vector 4573  IntersectionExampleScenario.node[65].veinsmobility  co2emission  ETV
vector 4579  IntersectionExampleScenario.node[66].veinsmobility  acceleration  ETV
vector 4580  IntersectionExampleScenario.node[66].veinsmobility  co2emission  ETV
vector 4583  IntersectionExampleScenario.node[67].veinsmobility  posx  ETV
vector 4584  IntersectionExampleScenario.node[67].veinsmobility  posy  ETV
4475	1663017 6169 14330 20940 115.25 163.5 194 0.973 12.159030432313 591.11419624592 3260.8185785134
4474	1669186 6305 14330 20940 115.25 163.5 194 -4.5 2.5 42.831365585327 388.17659731753
4473	1675491 6389 14291 20940 115 163.5 195 2.6500127315521 16.357841491699 2154.8330717087 28308.833822629
4472	1681880 6645 14252 20940 114.75 163.5 196 198.72973632812 732.2509765625 86276.322479248 41882779.711384
4471	1688525 6664 14252 20940 114.75 163.5 196 486.85000610352 486.85000610352 95422.601196289 46456493.974827
vector 4585  IntersectionExampleScenario.node[67].veinsmobility  speed  ETV
vector 4586  IntersectionExampleScenario.node[67].veinsmobility  acceleration  ETV
vector 4587  IntersectionExampleScenario.node[67].veinsmobility  co2emission  ETV
vector 4590  IntersectionExampleScenario.node[68].veinsmobility  posx  ETV
vector 4591  IntersectionExampleScenario.node[68].veinsmobility  posy  ETV
vector 4592  IntersectionExampleScenario.node[68].veinsmobility  speed  ETV
vector 4593  IntersectionExampleScenario.node[68].veinsmobility  acceleration  ETV
vector 4594  IntersectionExampleScenario.node[68].veinsmobility  co2emission  ETV
4468	1695829 6624 14291 21442 115 167 209 0.973 11.810082123732 645.39300278235 3503.3427548814
4467	1702453 6563 14291 21442 115 167 209 -4.5 2.5 42.349864959717 541.62417783745
4466	1709016 6803 14252 21442 114.75 167 210 2.7085473537445 15.875 2213.6675879955 27894.358031428
4465	1715819 7164 14215 21442 114.5 167 211 175.54809570312 483.30035400391 82447.006988525 34232323.548455
4464	1722983 7167 14215 21442 114.5 167 211 486.85000610352 731.6962890625 110795.69355774 59182596.9233
vector 4597  IntersectionExampleScenario.node[69].veinsmobility  posx  ETV
vector 4598  IntersectionExampleScenario.node[69].veinsmobility  posy  ETV
vector 4599  IntersectionExampleScenario.node[69].veinsmobility  speed  ETV
vector 4604  IntersectionExampleScenario.node[70].veinsmobility  posx  ETV
vector 4605  IntersectionExampleScenario.node[70].veinsmobility  posy  ETV
vector 4600  IntersectionExampleScenario.node[69].veinsmobility  acceleration  ETV
vector 4601  IntersectionExampleScenario.node[69].veinsmobility  co2emission  ETV
vector 4606  IntersectionExampleScenario.node[70].veinsmobility  speed  ETV
vector 4607  IntersectionExampleScenario.node[70].veinsmobility  acceleration  ETV
vector 4608  IntersectionExampleScenario.node[70].veinsmobility  co2emission  ETV
4496	1730942 5546 15743 21676 124 168.5 179 0.97223939240464 11.648172402475 562.56560547794 3252.676574434
4495	1736488 5517 15743 21676 124 168.5 179 -3.4414520263672 2.5 38.680875778198 319.84921351564
4494	1742005 5833 15700 21676 123.75 168.5 180 5.6500000953674 15.64999961853 2202.2441744804 28448.423613011
4493	1747838 6130 15657 21676 123.5 168.5 181 184.17810058594 487.06158447266 71621.263793945 30152014.850909
4492	1753968 6135 15657 21676 123.5 168.5 181 237.37750244141 486.85000610352 79791.458496094 36175858.698683
vector 4611  IntersectionExampleScenario.node[71].veinsmobility  posx  ETV
vector 4612  IntersectionExampleScenario.node[71].veinsmobility  posy  ETV
vector 4613  IntersectionExampleScenario.node[71].veinsmobility  speed  ETV
vector 4614  IntersectionExampleScenario.node[71].veinsmobility  acceleration  ETV
vector 4615  IntersectionExampleScenario.node[71].veinsmobility  co2emission  ETV
4405	1760499 9243 10914 22350 92.5 172.5 321 0.973 10.916047529558 654.32607998163 2623.5233967221
4404	1769742 8210 10914 22350 92.5 172.5 321 -8.9527311325073 4 34.097539901733 467.52678242579
4403	1777952 8718 10865 22350 92.25 172.5 322 0 14.625 2174.7472250462 28784.487255988
4402	1786670 10941 10816 22350 92 172.5 323 486.63653564453 785.82187652588 173535.88674927 95478308.313352
4401	1797611 10942 10816 22350 92 172.5 323 235.95959472656 483.14999389648 147235.42462158 68326994.780454
4412	1808553 9139 11879 22436 98 173 301 0.973 11.450879080643 665.55745564297 2839.572695684
4411	1817692 9117 11879 22436 98 173 301 -4.1037940979004 2.5 38.341367721558 381.99702183765
4410	1826809 9046 11837 22436 97.75 173 302 0 15.375 2215.0064856429 30439.551394819
4409	1835855 10278 11794 22436 97.5 173 303 483.13442993164 785.82187652588 163892.47621918 90768515.147725
4408	1846133 10288 11794 22436 97.5 173 303 483.14999389648 735.36026000977 154947.37931824 80432575.114563
vector 4618  IntersectionExampleScenario.node[72].veinsmobility  posx  ETV
vector 4619  IntersectionExampleScenario.node[72].veinsmobility  posy  ETV
vector 4620  IntersectionExampleScenario.node[72].veinsmobility  speed  ETV
vector 4621  IntersectionExampleScenario.node[72].veinsmobility  acceleration  ETV
vector 4622  IntersectionExampleScenario.node[72].veinsmobility  co2emission  ETV
4461	1856817 7739 14144 22919 114 175.75 248 0.973 11.200708441096 601.49708885888 2740.4369330426
4460	1864556 8016 14144 22919 114 175.75 248 -3.9219074249268 2.5000009536743 37.32285118103 332.52721707031
4459	1872572 8122 14107 22919 113.75 175.75 249 0 15.044774055481 2188.9858066123 28214.870778598
4458	1880694 8483 14070 22919 113.5 175.75 250 486.85000610352 785.82187652588 138460.24034882 78624935.488895
4457	1889177 8491 14070 22919 113.5 175.75 250 235.88244628906 483.14999389648 112397.30639648 51629357.728729
vector 4625  IntersectionExampleScenario.node[73].veinsmobility  posx  ETV
vector 4626  IntersectionExampleScenario.node[73].veinsmobility  posy  ETV
vector 4627  IntersectionExampleScenario.node[73].veinsmobility  speed  ETV
vector 4628  IntersectionExampleScenario.node[73].veinsmobility  acceleration  ETV
vector 4629  IntersectionExampleScenario.node[73].veinsmobility  co2emission  ETV
vector 4632  IntersectionExampleScenario.node[74].veinsmobility  posx  ETV
vector 4633  IntersectionExampleScenario.node[74].veinsmobility  posy  ETV
vector 4634  IntersectionExampleScenario.node[74].veinsmobility  speed  ETV
vector 4635  IntersectionExampleScenario.node[74].veinsmobility  acceleration  ETV
vector 4636  IntersectionExampleScenario.node[74].veinsmobility  co2emission  ETV
vector 4639  IntersectionExampleScenario.node[75].veinsmobility  posx  ETV
vector 4640  IntersectionExampleScenario.node[75].veinsmobility  posy  ETV
vector 4641  IntersectionExampleScenario.node[75].veinsmobility  speed  ETV
vector 4642  IntersectionExampleScenario.node[75].veinsmobility  acceleration  ETV
vector 4643  IntersectionExampleScenario.node[75].veinsmobility  co2emission  ETV
vector 4646  IntersectionExampleScenario.node[76].veinsmobility  posx  ETV
vector 4647  IntersectionExampleScenario.node[76].veinsmobility  posy  ETV
vector 4648  IntersectionExampleScenario.node[76].veinsmobility  speed  ETV
vector 4649  IntersectionExampleScenario.node[76].veinsmobility  acceleration  ETV
vector 4650  IntersectionExampleScenario.node[76].veinsmobility  co2emission  ETV
vector 4653  IntersectionExampleScenario.node[77].veinsmobility  posx  ETV
vector 4654  IntersectionExampleScenario.node[77].veinsmobility  posy  ETV
vector 4655  IntersectionExampleScenario.node[77].veinsmobility  speed  ETV
vector 4656  IntersectionExampleScenario.node[77].veinsmobility  acceleration  ETV
vector 4657  IntersectionExampleScenario.node[77].veinsmobility  co2emission  ETV
vector 4660  IntersectionExampleScenario.node[78].veinsmobility  posx  ETV
vector 4661  IntersectionExampleScenario.node[78].veinsmobility  posy  ETV
vector 4662  IntersectionExampleScenario.node[78].veinsmobility  speed  ETV
vector 4663  IntersectionExampleScenario.node[78].veinsmobility  acceleration  ETV
vector 4664  IntersectionExampleScenario.node[78].veinsmobility  co2emission  ETV
vector 4667  IntersectionExampleScenario.node[79].veinsmobility  posx  ETV
vector 4668  IntersectionExampleScenario.node[79].veinsmobility  posy  ETV
vector 4669  IntersectionExampleScenario.node[79].veinsmobility  speed  ETV
4433	1900273 9689 13143 25226 106.75 192.25 343 0.973 11.648172402475 711.89927313783 3096.0211992191
4432	1909962 8624 13143 25226 106.75 192.25 343 -7.7750906944275 4 38.511121749878 480.02721114425
4431	1918586 8971 13109 25226 106.5 192.25 344 0 15.64999961853 2214.2519129515 31459.955889585
4430	1927557 11731 13074 25226 106.25 192.25 345 483.14999389648 483.14999389648 166686.74789429 80534701.22775
4429	1939288 11704 13074 25226 106.25 192.25 345 184.17810058594 733.9766998291 159124.32963562 77584235.416537
4454	1950992 9066 14035 25226 113.25 192.25 317 0.973 11.648172402475 686.82602210271 3076.8883887565
4453	1960058 8233 14035 25226 113.25 192.25 317 -9.5146179199219 4 38.341367721558 519.03544799474
4452	1968291 8435 14000 25226 113 192.25 318 0 15.64999961853 2211.0503127575 31426.054254651
4451	1976726 10846 13965 25226 112.75 192.25 319 486.85000610352 486.85000610352 155305.15194702 75610314.173315
4450	1987572 10830 13965 25226 112.75 192.25 319 236.58178710938 785.82187652588 162588.80916595 87053364.07396
vector 4670  IntersectionExampleScenario.node[79].veinsmobility  acceleration  ETV
vector 4671  IntersectionExampleScenario.node[79].veinsmobility  co2emission  ETV
4489	1998569 8831 15370 25431 121.75 193.75 289 0.97223939240464 11.810082123732 652.00832296472 3077.166106368
4488	2007400 9253 15370 25431 121.75 193.75 289 -3.8291783332825 2.5 38.680875778198 346.788840573
4487	2016653 9083 15329 25431 121.5 193.75 290 0 15.875 2191.0115433224 29028.616377776
4486	2025736 9889 15288 25431 121.25 193.75 291 486.85000610352 734.74932861328 149911.53210449 78353305.67861
4485	2035625 9878 15288 25431 121.25 193.75 291 486.85000610352 785.82187652588 158465.54288483 88332339.219553
4482	2045503 9400 14412 25431 115.75 193.75 313 0.973 11.648172402475 670.82528510422 2982.7516758171
4481	2054903 9548 14412 25431 115.75 193.75 313 -3.6967263221741 2.5 38.341367721558 337.32878148102
4480	2064451 9578 14371 25431 115.5 193.75 314 0 15.64999961853 2184.411541637 28760.139392254
4479	2074029 10692 14330 25431 115.25 193.75 315 236.94897460938 483.14999389648 144012.33377075 66965883.617255
4478	2084721 10674 14330 25431 115.25 193.75 315 184.17810058594 483.14999389648 134928.27090454 59872514.555395
vector 4674  IntersectionExampleScenario.node[80].veinsmobility  posx  ETV
vector 4675  IntersectionExampleScenario.node[80].veinsmobility  posy  ETV
vector 4676  IntersectionExampleScenario.node[80].veinsmobility  speed  ETV
vector 4677  IntersectionExampleScenario.node[80].veinsmobility  acceleration  ETV
vector 4678  IntersectionExampleScenario.node[80].veinsmobility  co2emission  ETV
4503	2095791 8555 16360 25705 127.75 195.75 273 0.973 11.200708441096 617.57271366388 2733.4240723468
4502	2104346 8955 16360 25705 127.75 195.75 273 -3.7903385162354 2.5 36.134572982788 318.75279471612
4501	2113301 9108 16319 25705 127.5 195.75 274 0 15.02499961853 2211.4859808935 28521.324185478
4500	2122409 9352 16278 25705 127.25 195.75 275 483.14999389648 483.14999389648 132866.24832153 64194327.065597
4499	2131761 9297 16278 25705 127.25 195.75 275 184.17810058594 732.17156982422 123901.14727783 60071689.332973
4510	2141058 7240 17932 25845 138.5 196.75 234 0.973 11.648172402475 590.01090210307 2900.0973685338
4509	2148298 7392 17932 25845 138.5 196.75 234 -3.8246426582336 2.5 38.171613693237 337.79910941954
4508	2155690 7602 17899 25845 138.25 196.75 235 0 15.64999961853 2187.6484626681 28496.324739724
4507	2163292 8018 17865 25845 138 196.75 236 486.85000610352 733.69404602051 123148.75656128 65325248.286705
4506	2171310 8008 17865 25845 138 196.75 236 486.78820800781 785.82187652588 131220.6003952 74862256.541461
4545	2179318 5775 19691 26013 153 198 181 0.973 11.648172402475 550.23166205037 2824.6025472117
4544	2185093 5952 19691 26013 153 198 181 -2.5933799743652 2.5 39.869146347046 285.26130072816
4543	2191045 6164 19662 26013 152.75 198 182 4.3049464225769 15.64999961853 2204.166282177 29498.754327304
4542	2197209 6214 19633 26013 152.5 198 183 483.14999389648 731.88606262207 96576.886886597 51951428.38547
4541	2203423 6196 19633 26013 152.5 198 183 184.17810058594 486.85107421875 73725.723419189 31500985.770189
4531	2209619 6425 18993 26145 147.25 199 208 0.973 11.200708441096 544.46640886973 2645.9688956273
4530	2216044 6554 18993 26145 147.25 199 208 -4.2298650741577 2.5 35.625318527222 350.28012110629
4529	2222598 6872 18962 26145 147 199 209 0 15.02499961853 2214.242860496 28107.659473192
4528	2229470 7139 18931 26145 146.75 199 210 486.85000610352 486.85000610352 102238.50128174 49774814.973028
4527	2236609 7112 18931 26145 146.75 199 210 237.28869628906 785.82187652588 109956.74994659 61864668.246812
vector 4681  IntersectionExampleScenario.node[81].veinsmobility  posx  ETV
vector 4682  IntersectionExampleScenario.node[81].veinsmobility  posy  ETV
vector 4683  IntersectionExampleScenario.node[81].veinsmobility  speed  ETV
vector 4684  IntersectionExampleScenario.node[81].veinsmobility  acceleration  ETV
vector 4685  IntersectionExampleScenario.node[81].veinsmobility  co2emission  ETV
4552	2244117 6127 19869 26452 154.5 201.25 188 0.973 10.916047529558 539.30949319462 2658.6031180894
4551	2250244 5861 19869 26452 154.5 201.25 188 -4.5 2.5000019073486 34.94630241394 338.39646409084
4550	2256105 6112 19838 26452 154.25 201.25 189 5.6500000953674 14.625 2266.1485614777 28965.443048514
4549	2262217 6448 19807 26452 154 201.25 190 236.44049072266 483.14999389648 83125.634094238 37395579.29266
4548	2268665 6436 19807 26452 154 201.25 190 163.88433837891 483.14999389648 74561.476623535 31405140.204726
4538	2275101 6848 19090 26592 148 202.25 218 0.973 11.728875705581 640.55711644433 3139.8625864534
4537	2281949 7187 19090 26592 148 202.25 218 -4.5 2.5 40.448907852173 447.97800275231
4536	2289136 7383 19057 26592 147.75 202.25 219 2.1176362037659 16.022436141968 2292.9101457596 29175.041845071
4535	2296519 7474 19024 26592 147.5 202.25 220 238.74072265625 486.85000610352 98388.904541016 45092085.938193
4534	2303993 7457 19024 26592 147.5 202.25 220 483.08880615234 808.82032012939 125347.48896027 73653741.32606
vector 4688  IntersectionExampleScenario.node[82].veinsmobility  posx  ETV
vector 4689  IntersectionExampleScenario.node[82].veinsmobility  posy  ETV
vector 4695  IntersectionExampleScenario.node[83].veinsmobility  posx  ETV
vector 4696  IntersectionExampleScenario.node[83].veinsmobility  posy  ETV
vector 4690  IntersectionExampleScenario.node[82].veinsmobility  speed  ETV
vector 4691  IntersectionExampleScenario.node[82].veinsmobility  acceleration  ETV
vector 4692  IntersectionExampleScenario.node[82].veinsmobility  co2emission  ETV
vector 4697  IntersectionExampleScenario.node[83].veinsmobility  speed  ETV
vector 4698  IntersectionExampleScenario.node[83].veinsmobility  acceleration  ETV
vector 4699  IntersectionExampleScenario.node[83].veinsmobility  co2emission  ETV
4580	2312242 5187 20874 26820 163 203.75 164 0.97223939240464 11.648172402475 485.90181256013 2771.2747114048
4579	2317429 5044 20874 26820 163 203.75 164 -3.7979164123535 2.5 38.680875778198 236.55810584978
4578	2322473 5325 20841 26820 162.75 203.75 165 5.6500000953674 15.64999961853 2205.3999099731 30432.864059938
4577	2327798 5641 20808 26820 162.5 203.75 166 483.14999389648 732.56843566895 88528.544677734 48178282.492442
4576	2333439 5619 20808 26820 162.5 203.75 166 184.17810058594 486.87750244141 66116.411529541 28114089.287257
4559	2339058 6187 20079 26820 156.25 203.75 191 0.973 10.756497587458 579.61525193266 2658.8551759606
4558	2345245 6284 20079 26820 156.25 203.75 191 -4.5 2.5 38.592916488647 337.56018387182
4557	2351529 6378 20048 26820 156 203.75 192 5.6500000953674 15.330204963684 2303.1515007019 29510.334308586
4556	2357907 6555 20017 26820 155.75 203.75 193 236.13354492188 483.14999389648 84587.788146973 38097706.037738
4555	2364462 6535 20017 26820 155.75 203.75 193 154.79528808594 483.22393798828 75376.926177979 31730315.750695
vector 4702  IntersectionExampleScenario.node[84].veinsmobility  posx  ETV
vector 4703  IntersectionExampleScenario.node[84].veinsmobility  posy  ETV
vector 4704  IntersectionExampleScenario.node[84].veinsmobility  speed  ETV
vector 4705  IntersectionExampleScenario.node[84].veinsmobility  acceleration  ETV
vector 4706  IntersectionExampleScenario.node[84].veinsmobility  co2emission  ETV
vector 4709  IntersectionExampleScenario.node[85].veinsmobility  posx  ETV
vector 4710  IntersectionExampleScenario.node[85].veinsmobility  posy  ETV
vector 4711  IntersectionExampleScenario.node[85].veinsmobility  speed  ETV
vector 4712  IntersectionExampleScenario.node[85].veinsmobility  acceleration  ETV
vector 4713  IntersectionExampleScenario.node[85].veinsmobility  co2emission  ETV
vector 4716  IntersectionExampleScenario.node[86].veinsmobility  posx  ETV
vector 4717  IntersectionExampleScenario.node[86].veinsmobility  posy  ETV
vector 4718  IntersectionExampleScenario.node[86].veinsmobility  speed  ETV
vector 4719  IntersectionExampleScenario.node[86].veinsmobility  acceleration  ETV
vector 4720  IntersectionExampleScenario.node[86].veinsmobility  co2emission  ETV
vector 4723  IntersectionExampleScenario.node[87].veinsmobility  posx  ETV
vector 4724  IntersectionExampleScenario.node[87].veinsmobility  posy  ETV
vector 4725  IntersectionExampleScenario.node[87].veinsmobility  speed  ETV
vector 4726  IntersectionExampleScenario.node[87].veinsmobility  acceleration  ETV
vector 4727  IntersectionExampleScenario.node[87].veinsmobility  co2emission  ETV
4615	2372581 5143 22049 27744 170.75 209.25 155 0.973 11.648172402475 470.14005860265 2472.5227081115
4614	2377724 5051 22049 27744 170.75 209.25 155 -3.0754089355469 2.5 38.001859664917 191.15784928535
4613	2382775 5072 22006 27744 170.5 209.25 156 5.6500000953674 15.64999961853 2224.74223423 32346.746617184
4612	2387847 5339 21963 27744 170.25 209.25 157 483.14999389648 483.14999389648 75854.549041748 36649124.906541
4611	2393186 5309 21963 27744 170.25 209.25 157 184.17810058594 735.16156005859 70595.93536377 35939194.243692
4622	2398495 4987 22784 28253 175 212.25 150 0.973 11.648172402475 486.81831491633 2566.579834035
4621	2403482 4663 22784 28253 175 212.25 150 -3.466136932373 2.5 41.227170944214 199.59338309474
4620	2408145 4904 22739 28253 174.75 212.25 151 5.6500000953674 16.005014419556 2229.9548549652 33730.802135535
4619	2413049 5168 22694 28253 174.5 212.25 152 483.14999389648 483.14999389648 73438.799072266 35481955.32353
4618	2418217 5143 22694 28253 174.5 212.25 152 179.81719970703 731.98333740234 67609.134735107 34151979.551668
vector 4730  IntersectionExampleScenario.node[88].veinsmobility  posx  ETV
vector 4731  IntersectionExampleScenario.node[88].veinsmobility  posy  ETV
vector 4732  IntersectionExampleScenario.node[88].veinsmobility  speed  ETV
vector 4733  IntersectionExampleScenario.node[88].veinsmobility  acceleration  ETV
vector 4734  IntersectionExampleScenario.node[88].veinsmobility  co2emission  ETV
vector 4737  IntersectionExampleScenario.node[89].veinsmobility  posx  ETV
vector 4738  IntersectionExampleScenario.node[89].veinsmobility  posy  ETV
vector 4739  IntersectionExampleScenario.node[89].veinsmobility  speed  ETV
vector 4744  IntersectionExampleScenario.node[90].veinsmobility  posx  ETV
vector 4745  IntersectionExampleScenario.node[90].veinsmobility  posy  ETV
vector 4740  IntersectionExampleScenario.node[89].veinsmobility  acceleration  ETV
vector 4741  IntersectionExampleScenario.node[89].veinsmobility  co2emission  ETV
vector 4746  IntersectionExampleScenario.node[90].veinsmobility  speed  ETV
vector 4747  IntersectionExampleScenario.node[90].veinsmobility  acceleration  ETV
vector 4748  IntersectionExampleScenario.node[90].veinsmobility  co2emission  ETV
vector 4751  IntersectionExampleScenario.node[91].veinsmobility  posx  ETV
vector 4752  IntersectionExampleScenario.node[91].veinsmobility  posy  ETV
vector 4753  IntersectionExampleScenario.node[91].veinsmobility  speed  ETV
vector 4754  IntersectionExampleScenario.node[91].veinsmobility  acceleration  ETV
vector 4755  IntersectionExampleScenario.node[91].veinsmobility  co2emission  ETV
vector 4758  IntersectionExampleScenario.node[92].veinsmobility  posx  ETV
vector 4759  IntersectionExampleScenario.node[92].veinsmobility  posy  ETV
vector 4760  IntersectionExampleScenario.node[92].veinsmobility  speed  ETV
vector 4761  IntersectionExampleScenario.node[92].veinsmobility  acceleration  ETV
vector 4762  IntersectionExampleScenario.node[92].veinsmobility  co2emission  ETV
vector 4765  IntersectionExampleScenario.node[93].veinsmobility  posx  ETV
vector 4766  IntersectionExampleScenario.node[93].veinsmobility  posy  ETV
vector 4767  IntersectionExampleScenario.node[93].veinsmobility  speed  ETV
vector 4768  IntersectionExampleScenario.node[93].veinsmobility  acceleration  ETV
vector 4769  IntersectionExampleScenario.node[93].veinsmobility  co2emission  ETV
4643	2425736 5039 24150 29882 183.75 221.5 152 0.973 11.990504229548 480.56587504167 2612.2460010431
4642	2430775 4602 24150 29882 183.75 221.5 152 -3.098316192627 2.5 39.699392318726 198.7413223314
4641	2435377 4951 24115 29882 183.5 221.5 153 5.6500000953674 16.125 2223.7700414658 33036.010603426
4640	2440328 5237 24080 29882 183.25 221.5 154 483.14999389648 483.14999389648 74405.099060059 35948823.156735
4639	2445565 5203 24080 29882 183.25 221.5 154 184.17810058594 734.81692504883 69104.701156616 35120463.854685
vector 4772  IntersectionExampleScenario.node[94].veinsmobility  posx  ETV
vector 4773  IntersectionExampleScenario.node[94].veinsmobility  posy  ETV
vector 4779  IntersectionExampleScenario.node[95].veinsmobility  posx  ETV
vector 4780  IntersectionExampleScenario.node[95].veinsmobility  posy  ETV
vector 4774  IntersectionExampleScenario.node[94].veinsmobility  speed  ETV
vector 4775  IntersectionExampleScenario.node[94].veinsmobility  acceleration  ETV
vector 4776  IntersectionExampleScenario.node[94].veinsmobility  co2emission  ETV
vector 4781  IntersectionExampleScenario.node[95].veinsmobility  speed  ETV
vector 4782  IntersectionExampleScenario.node[95].veinsmobility  acceleration  ETV
vector 4783  IntersectionExampleScenario.node[95].veinsmobility  co2emission  ETV
4650	2451560 5184 24414 30441 185.75 224.5 156 0.973 11.54047740176 464.63231158543 2336.4085283449
4649	2456744 4618 24414 30441 185.75 224.5 156 -2.9061431884766 2.5 37.32285118103 179.22973772633
4648	2461362 5102 24381 30441 185.5 224.5 157 5.6500000953674 15.5 2216.5902757645 31875.991883042
4647	2466464 5373 24348 30441 185.25 224.5 158 486.85000610352 486.85000610352 76922.300964355 37449622.693993
4646	2471837 5362 24348 30441 185.25 224.5 158 236.77197265625 785.82187652588 82351.454399109 47114349.676633
4517	2477199 9387 18872 31063 146.25 228 328 0.973 11.200708441096 677.07427713397 2810.3780927353
4516	2486586 8332 18872 31063 146.25 228 328 -8.6544380187988 4 35.795072555542 478.35016826786
4515	2494918 8748 18843 31063 146 228 329 0 15.02499961853 2218.0963425636 30381.5057129
4514	2503666 11197 18814 31063 145.75 228 330 184.17810058594 735.35032653809 152201.18649292 74549898.179175
4513	2514863 11219 18814 31063 145.75 228 330 486.85000610352 486.85000610352 160660.50201416 78217566.386188
vector 4786  IntersectionExampleScenario.node[96].veinsmobility  posx  ETV
vector 4787  IntersectionExampleScenario.node[96].veinsmobility  posy  ETV
vector 4788  IntersectionExampleScenario.node[96].veinsmobility  speed  ETV
vector 4789  IntersectionExampleScenario.node[96].veinsmobility  acceleration  ETV
vector 4790  IntersectionExampleScenario.node[96].veinsmobility  co2emission  ETV
4524	2526478 9562 18931 31283 146.75 229.25 331 0.973 10.961479581405 709.32695183498 2880.2546057835
4523	2536040 8384 18931 31283 146.75 229.25 331 -4.5 2.5 38.713422775269 446.72088506029
4522	2544424 9104 18902 31283 146.5 229.25 332 0 15.339508056641 2311.4485512897 32494.822325943
4521	2553528 11299 18872 31283 146.25 229.25 333 160.43438720703 733.51623535156 150153.95144653 72484970.468648
4520	2564827 11323 18872 31283 146.25 229.25 333 486.85000610352 486.85000610352 162121.05203247 78928635.171517
vector 4793  IntersectionExampleScenario.node[97].veinsmobility  posx  ETV
vector 4794  IntersectionExampleScenario.node[97].veinsmobility  posy  ETV
vector 4795  IntersectionExampleScenario.node[97].veinsmobility  speed  ETV
vector 4796  IntersectionExampleScenario.node[97].veinsmobility  acceleration  ETV
vector 4797  IntersectionExampleScenario.node[97].veinsmobility  co2emission  ETV
vector 4800  IntersectionExampleScenario.node[98].veinsmobility  posx  ETV
vector 4801  IntersectionExampleScenario.node[98].veinsmobility  posy  ETV
vector 4802  IntersectionExampleScenario.node[98].veinsmobility  speed  ETV
4566	2576775 9066 20431 31802 159.25 232.25 293 0.973 11.450879080643 645.69618822542 2851.7692117351
4565	2585841 9545 20431 31802 159.25 232.25 293 -3.7696781158447 2.5 36.98334312439 327.18405277206
4564	2595386 9485 20402 31802 159 232.25 294 0 15.375 2214.6106268587 28704.960776722
4563	2604871 9988 20372 31802 158.75 232.25 295 184.17810058594 486.8752746582 124896.50827026 54921494.287809
4562	2614859 9974 20372 31802 158.75 232.25 295 235.05212402344 486.85000610352 134915.48049927 62907242.858871
vector 4803  IntersectionExampleScenario.node[98].veinsmobility  acceleration  ETV
vector 4804  IntersectionExampleScenario.node[98].veinsmobility  co2emission  ETV
4587	2625000 8691 21010 31981 164 233.25 278 0.973 11.450879080643 670.17348821931 3140.6392267952
4586	2633691 9324 21010 31981 164 233.25 278 -4.0124855041504 2.5 42.456716537476 373.28495286919
4585	2643015 9194 20975 31981 163.75 233.25 279 0 16.264179229736 2208.0805661455 29405.812170417
4584	2652209 9470 20940 31981 163.5 233.25 280 184.17810058594 486.8645324707 117070.31747437 50871479.714627
4583	2661679 9511 20940 31981 163.5 233.25 280 237.06408691406 486.85000610352 128262.93341064 59863208.747087
4608	2671190 8381 21676 32196 168.5 234.5 265 0.973 11.648172402475 645.4577861935 3060.6627284715
4607	2679571 8492 21676 32196 168.5 234.5 265 -4.5 2.5 41.396924972534 417.43788344317
4606	2688063 8819 21635 32196 168.25 234.5 266 0 16.062906265259 2109.4696038458 27951.01436683
4605	2696882 9009 21594 32196 168 234.5 267 209.53436279297 731.72320556641 119725.70162964 57219255.997514
4604	2705891 9077 21594 32196 168 234.5 267 486.85000610352 486.85003662109 129988.95166016 63285121.923994
4594	2714968 9216 21294 32961 166 239 293 0.973 11.00486315618 699.34467749049 3183.9181871951
4593	2724184 9164 21294 32961 166 239 293 -4.7381401062012 2.5 35.455564498901 566.52636170104
4592	2733348 9467 21257 32961 165.75 239 294 0 14.917509078979 2276.0130815394 27521.153146738
4591	2742815 9978 21220 32961 165.5 239 295 166.078125 487.06436157227 118817.61981201 50404937.968294
4590	2752793 10017 21220 32961 165.5 239 295 237.16900634766 486.85003662109 134842.6907959 62836786.373276
vector 4807  IntersectionExampleScenario.node[99].veinsmobility  posx  ETV
vector 4808  IntersectionExampleScenario.node[99].veinsmobility  posy  ETV
4601	2762962 8879 21594 33285 168 241 293 0.973 11.810082123732 713.15579654635 3375.9168864273
4600	2771841 8529 21594 33285 168 241 293 -4.5 2.5 39.529638290405 581.94784491206
4599	2780370 8820 21555 33285 167.75 241 294 0 15.875 2295.7659801431 28968.921505321
4598	2789190 9931 21516 33285 167.5 241 295 157.02813720703 483.14999389648 117623.7159729 49443368.672464
4597	2799121 10023 21516 33285 167.5 241 295 486.85000610352 733.79423522949 151700.75334167 79114453.630096
vector 4809  IntersectionExampleScenario.node[99].veinsmobility  speed  ETV
vector 4810  IntersectionExampleScenario.node[99].veinsmobility  acceleration  ETV
vector 4811  IntersectionExampleScenario.node[99].veinsmobility  co2emission  ETV
4636	2809388 7676 23452 33647 179 243.25 258 0.973 11.200708441096 656.66377669137 3389.1316788677
4635	2817064 7327 23452 33647 179 243.25 258 -3.7173118591309 4 36.474081039429 489.7934268093
4634	2824391 7777 23411 33647 178.75 243.25 259 0 15.02499961853 2216.008372277 28751.82942975
4633	2832168 8239 23370 33647 178.5 243.25 260 184.17810058594 733.90481567383 114064.45170593 54366391.812699
4632	2840407 8840 23370 33647 178.5 243.25 260 486.85000610352 486.85003662109 126581.00164795 61625961.454608
4685	2849247 5686 26347 33956 200.5 245.25 180 0.973 11.648172402475 573.50743970394 3196.7615519939
4684	2854933 5606 26347 33956 200.5 245.25 180 -2.9955406188965 2.5 38.850629806519 339.13397421637
[...]
vector 9021  IntersectionExampleScenario.node[701].veinsmobility  posx  ETV
vector 9022  IntersectionExampleScenario.node[701].veinsmobility  posy  ETV
vector 9016  IntersectionExampleScenario.node[700].veinsmobility  speed  ETV
vector 9023  IntersectionExampleScenario.node[701].veinsmobility  speed  ETV
vector 9017  IntersectionExampleScenario.node[700].veinsmobility  acceleration  ETV
vector 9018  IntersectionExampleScenario.node[700].veinsmobility  co2emission  ETV
vector 9024  IntersectionExampleScenario.node[701].veinsmobility  acceleration  ETV
vector 9025  IntersectionExampleScenario.node[701].veinsmobility  co2emission  ETV
vector 9028  IntersectionExampleScenario.node[702].veinsmobility  posx  ETV
vector 9029  IntersectionExampleScenario.node[702].veinsmobility  posy  ETV
vector 9035  IntersectionExampleScenario.node[703].veinsmobility  posx  ETV
vector 9036  IntersectionExampleScenario.node[703].veinsmobility  posy  ETV
vector 9030  IntersectionExampleScenario.node[702].veinsmobility  speed  ETV
vector 9031  IntersectionExampleScenario.node[702].veinsmobility  acceleration  ETV
vector 9032  IntersectionExampleScenario.node[702].veinsmobility  co2emission  ETV
vector 9037  IntersectionExampleScenario.node[703].veinsmobility  speed  ETV
vector 9038  IntersectionExampleScenario.node[703].veinsmobility  acceleration  ETV
vector 9039  IntersectionExampleScenario.node[703].veinsmobility  co2emission  ETV
8794	28641509 11096 256004 270645 1704.5 1790 343 0.973 11.36141391502 719.77210219849 2966.2314740927
8793	28652605 11221 256004 270645 1704.5 1790 343 -4.5 2.5 37.32285118103 551.12041697811
8792	28663826 11080 255949 270645 1704.25 1790 344 0 15.25 2291.764200449 28352.134511478
8791	28674906 12384 255896 270645 1704 1790 345 158.97839355469 483.14999389648 140149.8180542 59310208.893248
8790	28687290 12411 255896 270645 1704 1790 345 486.85000610352 734.68101501465 176386.04251099 91361584.499485
8843	28699701 8713 260343 271040 1724 1792 273 0.973 11.648172402475 639.93918718571 2997.5445041059
8842	28708414 8370 260343 271040 1724 1792 273 -3.943932056427 2.5 38.341367721558 385.7159092339
8841	28716784 8736 260286 271040 1723.75 1792 274 0 15.64999961853 2183.620898366 27549.047323204
8840	28725520 9865 260228 271040 1723.5 1792 275 184.17810058594 483.14999389648 111901.85934448 47337385.595632
8839	28735385 9893 260228 271040 1723.5 1792 275 486.85000610352 733.58619689941 142103.80966187 74532402.186043
8913	28745278 5700 264805 271513 1752.5 1794.5 169 0.973 11.990504229548 548.60564269905 3272.5388578127
8912	28750978 5579 264805 271513 1752.5 1794.5 169 -3.5701675415039 2.5 39.869146347046 292.09059995989
8911	28756557 5862 264766 271513 1752.25 1794.5 170 5.6500000953674 16.125 2210.3935260773 30012.449631357
8910	28762419 6131 264727 271513 1752 1794.5 171 184.17810058594 731.76753234863 75568.759063721 37502688.695977
8909	28768550 6155 264727 271513 1752 1794.5 171 486.85000610352 486.85000610352 83251.351043701 40530920.763752
8864	28774705 7317 263066 271513 1739 1794.5 223 0.973 11.200708441096 581.02807547523 2796.5923446887
8863	28782022 7674 263066 271513 1739 1794.5 223 -2.1943531036377 2.5 37.15309715271 315.94986759292
8862	28789696 7763 263029 271513 1738.75 1794.5 224 0.75950276851654 15.150223731995 2185.8896629214 26967.833384515
8861	28797459 8070 262992 271513 1738.5 1794.5 225 184.17810058594 483.14999389648 90276.574127197 38017991.116761
8860	28805529 8093 262992 271513 1738.5 1794.5 225 486.85000610352 734.03337097168 117944.15870667 62892569.949557
vector 9042  IntersectionExampleScenario.node[704].veinsmobility  posx  ETV
vector 9043  IntersectionExampleScenario.node[704].veinsmobility  posy  ETV
vector 9044  IntersectionExampleScenario.node[704].veinsmobility  speed  ETV
vector 9049  IntersectionExampleScenario.node[705].veinsmobility  posx  ETV
vector 9050  IntersectionExampleScenario.node[705].veinsmobility  posy  ETV
vector 9045  IntersectionExampleScenario.node[704].veinsmobility  acceleration  ETV
vector 9046  IntersectionExampleScenario.node[704].veinsmobility  co2emission  ETV
vector 9051  IntersectionExampleScenario.node[705].veinsmobility  speed  ETV
vector 9052  IntersectionExampleScenario.node[705].veinsmobility  acceleration  ETV
vector 9053  IntersectionExampleScenario.node[705].veinsmobility  co2emission  ETV
8927	28814424 5386 266050 272337 1760.5 1799 155 0.973 11.90022389248 503.73288326212 3034.3085428915
8926	28819810 5218 266050 272337 1760.5 1799 155 -3.4433555603027 2.5 39.359884262085 264.59391728015
8925	28825028 5307 266009 272337 1760.25 1799 156 5.6500000953674 16 2200.2697105408 32011.447791848
8924	28830335 5627 265968 272337 1760 1799 157 184.17810058594 487.07089233398 62397.941131592 26556176.427413
8923	28835962 5640 265968 272337 1760 1799 157 238.78961181641 486.85000610352 68290.76361084 30628091.894112
8801	28841602 11260 256059 272526 1704.75 1800 382 0.973 11.00486315618 694.9192210334 2657.7213795701
8800	28852862 10131 256059 272526 1704.75 1800 382 -7.8154296875 4 34.267301559448 454.3450579586
8799	28862993 10333 256004 272526 1704.5 1800 383 0 14.75 1911.8899559975 25342.750202045
8798	28873326 13812 255949 272526 1704.25 1800 384 311.13116455078 785.82187652588 199703.4546051 107030098.74353
8797	28887138 13824 255949 272526 1704.25 1800 384 483.14999389648 483.14999389648 185529.59765625 89638623.975235
8829	28900962 10275 258882 272526 1717.75 1800 330 0.95941646339617 12.099024792222 673.47638845225 3099.8384993475
8828	28911237 10545 258882 272526 1717.75 1800 330 -3.9453029632568 2.5 38.877740859985 351.74275213377
8827	28921782 10529 258823 272526 1717.5 1800 331 0 16.409385681152 1843.8816521307 24426.91741133
8826	28932311 11940 258766 272526 1717.25 1800 332 329.60791015625 785.82187652588 176076.74463654 96076534.961112
8825	28944251 11952 258766 272526 1717.25 1800 332 483.14999389648 483.14999389648 160405.79797363 77500060.311921
8857	28956203 7096 262992 272526 1738.5 1800 247 0.973 11.648172402475 421.37536323017 1604.0616286636
8856	28963299 6450 262992 272526 1738.5 1800 247 -8.1522026062012 2.5 -22.60000038147 329.74658064539
8855	28969749 6654 262957 272526 1738.25 1800 248 0 15.64999961853 1146.7600128651 16297.043323745
8854	28976403 8962 262922 272526 1738 1800 249 483.14999389648 483.14999389648 120304.34848022 58125045.233941
8853	28985365 8943 262922 272526 1738 1800 249 184.17810058594 471.60000610352 104724.20565796 45994589.169323
8871	28994308 6706 263505 272526 1742.25 1800 232 0.973 11.648172402475 402.79358182256 1574.1839124391
8870	29001014 6160 263505 272526 1742.25 1800 232 -7.4922199249268 2.5 -22.60000038147 324.91023982524
8869	29007174 6337 263472 272526 1742 1800 233 0 15.64999961853 1146.8506031036 16064.521389431
8868	29013511 8423 263439 272526 1741.75 1800 234 486.85000610352 486.85000610352 113922.90142822 55463365.25566
8867	29021934 8412 263439 272526 1741.75 1800 234 498.39999389648 785.82187652588 129473.86177826 73554903.660461
8878	29030346 6355 264454 272526 1750 1800 201 0.973 11.648172402475 369.27748980494 1598.8413101001
8877	29036701 7115 264454 272526 1750 1800 201 -3.9152302742004 2.5 -22.60000038147 203.3653919121
8876	29043816 6964 264421 272526 1749.75 1800 202 0 15.64999961853 1123.3856869135 14024.684575625
8875	29050780 7307 264390 272526 1749.5 1800 203 483.14999389648 483.14999389648 98079.448760986 47387085.070241
8874	29058087 7259 264390 272526 1749.5 1800 203 184.17810058594 465.20162963867 81474.149871826 34354042.28902
8885	29065346 6342 264487 272526 1750.25 1800 200 0.973 11.200708441096 357.34771513737 1387.5857818064
8884	29071688 7135 264487 272526 1750.25 1800 200 -3.7779455184937 2.5 -22.60000038147 183.35498206853
8883	29078823 6939 264454 272526 1750 1800 201 0 15.02499961853 1122.7814500099 13835.613544604
8882	29085762 7271 264421 272526 1749.75 1800 202 486.85000610352 486.85000610352 98343.70123291 47878631.545484
8881	29093033 7256 264421 272526 1749.75 1800 202 504.79708862305 785.82187652588 115070.17627716 67210350.014297
8892	29100289 6344 264690 272526 1751.75 1800 194 0.973 11.200708441096 373.77880068469 1467.6386908379
8891	29106633 7036 264690 272526 1751.75 1800 194 -4.5 2.5 -22.118209898472 290.51024220289
8890	29113669 6986 264655 272526 1751.5 1800 195 0 15.312784194946 1176.5945302043 14718.122384268
8889	29120655 7056 264619 272526 1751.25 1800 196 486.85000610352 486.85000610352 95422.601196289 46456493.974827
8888	29127711 7019 264619 272526 1751.25 1800 196 511.41848754883 806.11563110352 114589.18683624 68781722.14502
8899	29134730 6356 264690 272526 1751.75 1800 194 0.973 11.200708441096 495.63013485636 2433.9008790699
8898	29141086 6937 264690 272526 1751.75 1800 194 -3.9878957271576 2.5 35.966455459595 308.29925285987
8897	29148023 6891 264655 272526 1751.5 1800 195 0 15.02499961853 1698.2786049098 21027.385154795
8896	29154914 7044 264619 272526 1751.25 1800 196 366.22259521484 785.82187652588 109810.24837494 63712969.790961
8895	29161958 7056 264619 272526 1751.25 1800 196 483.14999389648 483.14999389648 94697.398803711 45753047.654026
8906	29169014 6263 264766 272526 1752.25 1800 192 0.973 11.810082123732 541.46415878491 2963.9155218583
8905	29175277 6362 264766 272526 1752.25 1800 192 -4.5 2.5000002384186 40.153833389282 478.34626176586
8904	29181639 6625 264727 272526 1752 1800 193 0 15.875 1601.9213436805 19359.891017528
8903	29188264 6960 264690 272526 1751.75 1800 194 486.83666992188 809.56562805176 113577.20270538 68406026.727961
8902	29195224 6981 264690 272526 1751.75 1800 194 406.30099487305 483.14999389648 92824.029876709 44453607.501272
8920	29202205 5165 265968 272526 1760 1800 161 0.973 11.648172402475 461.59073429016 2746.4044414288
8919	29207370 5422 265968 272526 1760 1800 161 -4.2206344604492 2.5 38.871454238892 329.2341028216
8918	29212792 5540 265929 272526 1759.75 1800 162 2.0175590515137 15.64999961853 1429.9130995274 16340.768015366
8917	29218332 5844 265890 272526 1759.5 1800 163 483.14999389648 785.82187652588 96167.817298889 58125779.100977
8916	29224176 5867 265890 272526 1759.5 1800 163 483.14999389648 538.33944702148 79262.818725586 38559833.451369
8934	29230043 3691 267485 272526 1770.25 1800 120 0.973 11.648172402475 277.66720196659 1419.3709849302
8933	29233734 4311 267485 272526 1770.25 1800 120 -3.9740655422211 2.5 -21.456496357918 190.23268984364
8932	29238045 4332 267450 272526 1770 1800 121 0 15.64999961853 1064.8456461206 13298.938206393
8931	29242377 4391 267415 272526 1769.75 1800 122 486.85000610352 486.85000610352 59395.700744629 28916797.270045
8930	29246768 4379 267415 272526 1769.75 1800 122 519.46014404297 785.82187652588 75026.573280334 47148043.212942
8941	29251147 3515 267690 272526 1771.75 1800 114 0.973 11.200708441096 260.94727767302 1273.6544208262
8940	29254662 4137 267690 272526 1771.75 1800 114 -2.0724411010742 2.5 -18.60323548317 163.66405563224
8939	29258799 4123 267655 272526 1771.5 1800 115 0.99919122457504 15.02499961853 1091.3565879464 13289.823114573
8938	29262922 4176 267620 272526 1771.25 1800 116 483.14999389648 483.14999389648 56045.399291992 27078334.325852
8937	29267098 4147 267620 272526 1771.25 1800 116 184.17810058594 456.78778076172 40554.256103516 15166132.878706
8948	29271245 3588 267799 272526 1772.5 1800 111 0.973 11.200708441096 275.31808773428 1323.9519229525
8947	29274833 3515 267799 272526 1772.5 1800 111 -6.8669729232788 2.5 -22.60000038147 297.62419353667
8946	29278348 3724 267762 272526 1772.25 1800 112 0 15.02499961853 1147.1561479568 15500.62099406
8945	29282072 4047 267725 272526 1772 1800 113 184.17810058594 471.60000610352 40095.693786621 15365706.064281
8944	29286119 4066 267725 272526 1772 1800 113 486.85000610352 486.85000610352 55014.050689697 26783590.914058
8955	29290185 3618 267985 272526 1773.75 1800 106 0.973 11.200708441096 303.12525257596 1473.6790714899
8954	29293803 3697 267985 272526 1773.75 1800 106 -4.5 2.5 -22.385124638677 353.46916701981
8953	29297500 3818 267946 272526 1773.5 1800 107 0 16.342311859131 1207.3067168593 17732.590383499
8952	29301318 3862 267909 272526 1773.25 1800 108 162.90466308594 465.15841674805 36529.26776123 13576641.026679
8951	29305180 3888 267909 272526 1773.25 1800 108 486.85000610352 486.85000610352 52579.80065918 25598476.271843
8962	29309068 3441 268024 272526 1774 1800 105 0.973 11.200708441096 271.16123110941 1338.0210646868
8961	29312509 3789 268024 272526 1774 1800 105 -4.5 2.5 -11.058495521545 238.97468395965
8960	29316298 3798 267985 272526 1773.75 1800 106 2.8853762149811 15.44401550293 1088.8794651031 13915.11969847
8959	29320096 3851 267946 272526 1773.5 1800 107 483.14999389648 483.14999389648 51697.049346924 24977429.076432
8958	29323947 3834 267946 272526 1773.5 1800 107 167.29217529297 438.62976074219 34952.363739014 12314848.644236
8969	29327781 2932 268409 272526 1776.5 1800 95 0.973 11.200708441096 230.9819954811 1220.0009592333
8968	29330713 3382 268409 272526 1776.5 1800 95 -2.7526473999023 2.5 -15.684039115906 171.96934622003
8967	29334095 3431 268370 272526 1776.25 1800 96 1.728990316391 15.02499961853 1028.7635821104 12705.407087965
8966	29337526 3490 268331 272526 1776 1800 97 486.85000610352 486.85000610352 47224.450592041 22991224.05897
8965	29341016 3481 268331 272526 1776 1800 97 528.99090576172 785.82187652588 62286.01209259 40706669.458854
8976	29344497 2826 268865 272526 1779.5 1800 83 0.973 11.648172402475 260.57143292566 1497.2775955864
8975	29347323 3003 268865 272526 1779.5 1800 83 -3.4237937927246 2.5 5.3999996185303 202.59934211758
8974	29350326 2993 268826 272526 1779.25 1800 84 5.6500000953674 15.64999961853 1152.3813886642 16404.428124798
8973	29353319 3053 268788 272526 1779 1800 85 499.8235168457 785.82187652588 55186.855628967 36519289.791599
8972	29356372 3058 268788 272526 1779 1800 85 483.14999389648 483.14999389648 41067.749481201 19841882.911185
8983	29359430 2536 268904 272526 1779.75 1800 82 0.97223939240464 11.648172402475 221.66876383664 1322.1476811045
8982	29361966 2891 268904 272526 1779.75 1800 82 -3.0958633422852 2.5 -10.681834220886 178.12837819724
8981	29364857 2969 268865 272526 1779.5 1800 83 2.9795415401459 15.64999961853 935.59463191032 12066.227822377
8980	29367826 3024 268826 272526 1779.25 1800 84 483.14999389648 483.14999389648 40584.599487305 19608448.994582
8979	29370850 2999 268826 272526 1779.25 1800 84 184.17810058594 417.36184692383 26131.392272949 8647772.2466455
8990	29373849 2398 269259 272526 1782 1800 73 0.973 11.200708441096 220.40824468268 1246.4547006486
8989	29376247 2552 269259 272526 1782 1800 73 -3.8772277832031 2.5 -0.03425407409668 179.23415230484
8988	29378799 2650 269218 272526 1781.75 1800 74 5.6414365768433 15.388912200928 928.93237733841 12485.745558675
8987	29381449 2699 269177 272526 1781.5 1800 75 486.85000610352 486.85000610352 36513.750457764 17776719.633224
8986	29384148 2693 269177 272526 1781.5 1800 75 555.20095825195 785.82187652588 50261.698921204 34111779.821347
8997	29386841 2041 269857 272526 1785.75 1800 58 0.973 11.200708441096 209.34459822173 1233.0190647596
8996	29388882 1990 269857 272526 1785.75 1800 58 -2.1257591247559 2.5 29.087400436401 110.71840432732
8995	29390872 2112 269816 272526 1785.5 1800 59 5.6500000953674 15.02499961853 803.46942996979 11319.096561539
8994	29392984 2134 269775 272526 1785.25 1800 60 184.17810058594 380.56811523438 16403.697235107 4711710.9528057
8993	29395118 2160 269775 272526 1785.25 1800 60 486.85000610352 486.85000610352 29211.000366211 14221375.70658
9004	29397278 1709 270025 272526 1786.75 1800 54 0.973 11.648172402475 185.63378090521 1268.2809647726
9003	29398987 1840 270025 272526 1786.75 1800 54 -0.92779541015625 2.5 22.748373031616 112.77599047995
9002	29400827 1967 269982 272526 1786.5 1800 55 5.6500000953674 15.64999961853 705.71766757965 9397.4622647268
9001	29402794 2016 269939 272526 1786.25 1800 56 483.14999389648 483.14999389648 27056.399658203 13072299.329722
9000	29404810 1998 269939 272526 1786.25 1800 56 184.17810058594 356.94683837891 14841.162353516 4103347.8125715
9011	29406808 1827 270158 272526 1787.5 1800 51 2.1591417295491 11.200708441096 203.83502790645 1239.4246400713
9010	29408635 1689 270158 272526 1787.5 1800 51 -0.0034828186035156 2.5 38.341367721558 93.993860836406
9009	29410324 1859 270113 272526 1787.25 1800 52 5.6500000953674 15.238822937012 713.67955589294 10192.948784758
9008	29412183 1887 270068 272526 1787 1800 53 164.94219970703 338.27673339844 12830.137268066 3262489.6948804
9007	29414070 1906 270068 272526 1787 1800 53 486.85000610352 486.85000610352 25803.050323486 12562215.207479
9018	29415976 1688 270345 272526 1788.5 1800 47 2.1197443333033 10.363586727931 189.35082602448 1117.8286682147
9017	29417664 1758 270345 272526 1788.5 1800 47 -0.0066604614257812 2.5 37.32285118103 83.285485923047
9016	29419422 1725 270297 272526 1788.25 1800 48 5.6500000953674 14.987373352051 634.55417013168 8789.7707878979
9015	29421147 1757 270248 272526 1788 1800 49 152.38513183594 306.03399658203 10761.96282959 2478082.1834904
9014	29422904 1762 270248 272526 1788 1800 49 486.85000610352 486.85000610352 23855.650299072 11614123.493707
9025	29424666 1655 270345 272526 1788.5 1800 47 0.973 11.648172402475 206.43452634759 1376.1233843031
9024	29426321 1583 270345 272526 1788.5 1800 47 -0.4706916809082 2.5 40.177667617798 101.4793573238
9023	29427904 1712 270297 272526 1788.25 1800 48 5.6500000953674 16.312875747681 681.30327320099 10161.446333521
9022	29429616 1762 270248 272526 1788 1800 49 483.14999389648 483.14999389648 23674.349700928 11438261.913506
9021	29431378 1748 270248 272526 1788 1800 49 164.94219970703 330.02087402344 11605.662536621 2881456.4331876
9032	29433126 1578 270492 272526 1789.25 1800 44 1.5160152559774 11.595062706918 199.85087171951 1369.6354448451
9031	29434704 1590 270492 272526 1789.25 1800 44 -0.19412994384766 2.5 41.057992935181 97.777699492686
9030	29436294 1614 270441 272526 1789 1800 45 5.6500000953674 16.10848236084 611.25423717499 8815.4743873255
9029	29437908 1655 270392 272526 1788.75 1800 46 483.14999389648 483.14999389648 22224.899719238 10737960.1637
9028	29439563 1649 270392 272526 1788.75 1800 46 151.56170654297 299.03295898438 9866.1029663086 2215426.3788925
9039	29441212 1533 270543 272526 1789.5 1800 43 0.973 11.648172402475 187.76410834491 1297.6977654882
9038	29442745 1460 270543 272526 1789.5 1800 43 -0.37222290039062 2.5 38.511743545532 100.31667377787
9037	29444205 1571 270492 272526 1789.25 1800 44 5.6500000953674 15.64999961853 594.66620826721 8423.9253586603
9036	29445776 1614 270441 272526 1789 1800 45 642.2833404541 785.82187652588 32540.592735291 23623226.725681
9035	29447390 1618 270441 272526 1789 1800 45 483.14999389648 483.14999389648 21741.749725342 10504526.247098
9046	29449008 429 272008 272526 1797.25 1800 12 5.2162187258585 9.8772939209111 90.329754123875 705.60800469607
9045	29449437 300 272008 272526 1797.25 1800 12 2.4999980926514 2.5 29.999998092651 74.99999046326
9044	29449737 460 271963 272526 1797 1800 13 5.6500000953674 13.14999961853 122.19999694824 1219.7736818981
9043	29450197 491 271918 272526 1796.75 1800 14 184.17810058594 210.50311279297 2727.2623901367 532292.57388077
9042	29450688 503 271918 272526 1796.75 1800 14 486.85000610352 486.85000610352 6815.9000854492 3318320.9982019
9053	29451191 357 272102 272526 1797.75 1800 10 5.2162187258585 9.0094788378334 71.010429736213 518.89513016095
9052	29451548 251 272102 272526 1797.75 1800 10 2.4999980926514 2.5 24.999998092651 62.49999046326
9051	29451799 391 272055 272526 1797.5 1800 11 5.6500000953674 11.89999961853 96.524997711182 889.97557648659
9050	29452190 432 272008 272526 1797.25 1800 12 483.14999389648 483.14999389648 5797.7999267578 2801206.9992261
9049	29452622 420 272008 272526 1797.25 1800 12 184.17810058594 204.55310058594 2309.3092651367 444945.50582055
4110	29453042 613 0 272525 0 1800 31 0 34 742 19040
4111	29453655 633 0 272525 0 1800 31 0 314 4795 1017013
