version 2
run nodebug-43-20200605-15:55:24-11144
attr configname nodebug
attr datetime 20200605-15:55:24
attr experiment nodebug
attr inifile omnetpp.ini
attr iterationvars ""
attr iterationvars2 $repetition=43
attr measurement ""
attr network "\"org.car2x.veins.modules.application.ExtTraCIScenarioManagerLaunchd.IntersectionExampleScenario\""
attr processid 11144
attr repetition 43
attr replication #43
attr resultdir results
attr runnumber 43
attr seedset 43
param **.coreDebug false
param **.debug false
param *.**.nic.mac1609_4.bitrate 18Mbps
param *.**.nic.mac1609_4.txPower 20mW
param *.**.nic.mac1609_4.useServiceChannel false
param *.**.nic.phy80211p.analogueModels "xmldoc(\"config.xml\")"
param *.**.nic.phy80211p.decider "xmldoc(\"config.xml\")"
param *.**.nic.phy80211p.sensitivity -89dBm
param *.**.nic.phy80211p.thermalNoise -110dBm
param *.**.nic.phy80211p.usePropagationDelay true
param *.**.nic.phy80211p.useThermalNoise true
param *.annotations.draw false
param *.connectionManager.alpha 2.0
param *.connectionManager.carrierFrequency "5.890e9 Hz"
param *.connectionManager.pMax 20mW
param *.connectionManager.sat -89dBm
param *.connectionManager.sendDirect true
param *.manager.autoShutdown true
param *.manager.host "\"localhost\""
param *.manager.launchConfig "xmldoc(\"paramics.launchd.xml\")"
param *.manager.margin 25
param *.manager.moduleDisplayString "\"\""
param *.manager.moduleName "\"node\""
param *.manager.moduleType "\"org.car2x.veins.nodes.Car\""
param *.manager.port 9999
param *.manager.updateInterval 250ms
param *.node[*0].veinsmobility.accidentCount 0
param *.node[*0].veinsmobility.accidentDuration 30s
param *.node[*0].veinsmobility.accidentStart 75s
param *.node[*].appl.LiderSelectZoneRadio 55.0
param *.node[*].appl.ShareDataZoneRadio 110.0
param *.node[*].appl.TiempoSemaforo 30.0
param *.node[*].appl.beaconInterval 1s
param *.node[*].appl.beaconPriority 3
param *.node[*].appl.dataOnSch false
param *.node[*].appl.dataPriority 2
param *.node[*].appl.debug false
param *.node[*].appl.headerLength "256 bit"
param *.node[*].appl.maxOffset 0.005s
param *.node[*].appl.sendBeacons false
param *.node[*].appl.sendData true
param *.node[*].applType "\"Dummy\""
param *.node[*].mobilityType "\"TraCIMobility\""
param *.node[*].mobilityType.debug true
param *.node[*].veinsmobility.x 0
param *.node[*].veinsmobility.y 0
param *.node[*].veinsmobility.z 1.895
param *.node[*].veinsmobilityType "\"org.car2x.veins.modules.mobility.traci.TraCIMobility\""
param *.node[*].veinsmobilityType.debug true
param *.playgroundSizeX 8500m
param *.playgroundSizeY 8500m
param *.playgroundSizeZ 50m
param *.world.use2D false
param *.world.useTorus false

scalar IntersectionExampleScenario.node[0].appl 	VehicleRemoved 	0
scalar IntersectionExampleScenario.node[0].appl 	ArrivedAtDest 	1
scalar IntersectionExampleScenario.node[0].appl 	IntersectionEnterTime 	2.25
scalar IntersectionExampleScenario.node[0].appl 	IntersectionExitTime 	25.780073702801
scalar IntersectionExampleScenario.node[0].appl 	NumberOfCollisions 	0
scalar IntersectionExampleScenario.node[0].nic.phy80211p 	busyTime 	0
scalar IntersectionExampleScenario.node[0].nic.mac1609_4 	ReceivedUnicastPackets 	0
scalar IntersectionExampleScenario.node[0].nic.mac1609_4 	ReceivedBroadcasts 	0
scalar IntersectionExampleScenario.node[0].nic.mac1609_4 	SentPackets 	0
scalar IntersectionExampleScenario.node[0].nic.mac1609_4 	SNIRLostPackets 	0
scalar IntersectionExampleScenario.node[0].nic.mac1609_4 	RXTXLostPackets 	0
scalar IntersectionExampleScenario.node[0].nic.mac1609_4 	TotalLostPackets 	0
scalar IntersectionExampleScenario.node[0].nic.mac1609_4 	DroppedPacketsInMac 	0
scalar IntersectionExampleScenario.node[0].nic.mac1609_4 	TooLittleTime 	0
scalar IntersectionExampleScenario.node[0].nic.mac1609_4 	TimesIntoBackoff 	0
scalar IntersectionExampleScenario.node[0].nic.mac1609_4 	SlotsBackoff 	0
scalar IntersectionExampleScenario.node[0].nic.mac1609_4 	NumInternalContention 	0
scalar IntersectionExampleScenario.node[0].nic.mac1609_4 	totalBusyTime 	0
scalar IntersectionExampleScenario.node[0].veinsmobility 	startTime 	2.25
scalar IntersectionExampleScenario.node[0].veinsmobility 	totalTime 	40
scalar IntersectionExampleScenario.node[0].veinsmobility 	stopTime 	42.5
scalar IntersectionExampleScenario.node[0].veinsmobility 	minSpeed 	5.6500000953674
scalar IntersectionExampleScenario.node[0].veinsmobility 	maxSpeed 	15.875
scalar IntersectionExampleScenario.node[0].veinsmobility 	totalDistance 	543.80742207355
scalar IntersectionExampleScenario.node[0].veinsmobility 	totalCO2Emission 	126.97611641012
scalar IntersectionExampleScenario.node[1].appl 	VehicleRemoved 	0
scalar IntersectionExampleScenario.node[1].appl 	ArrivedAtDest 	1
scalar IntersectionExampleScenario.node[1].appl 	IntersectionEnterTime 	8
scalar IntersectionExampleScenario.node[1].appl 	IntersectionExitTime 	31.567645276635
scalar IntersectionExampleScenario.node[1].appl 	NumberOfCollisions 	0
scalar IntersectionExampleScenario.node[1].nic.phy80211p 	busyTime 	0
scalar IntersectionExampleScenario.node[1].nic.mac1609_4 	ReceivedUnicastPackets 	0
scalar IntersectionExampleScenario.node[1].nic.mac1609_4 	ReceivedBroadcasts 	0
scalar IntersectionExampleScenario.node[1].nic.mac1609_4 	SentPackets 	0
scalar IntersectionExampleScenario.node[1].nic.mac1609_4 	SNIRLostPackets 	0
scalar IntersectionExampleScenario.node[1].nic.mac1609_4 	RXTXLostPackets 	0
scalar IntersectionExampleScenario.node[1].nic.mac1609_4 	TotalLostPackets 	0
scalar IntersectionExampleScenario.node[1].nic.mac1609_4 	DroppedPacketsInMac 	0
scalar IntersectionExampleScenario.node[1].nic.mac1609_4 	TooLittleTime 	0
scalar IntersectionExampleScenario.node[1].nic.mac1609_4 	TimesIntoBackoff 	0
scalar IntersectionExampleScenario.node[1].nic.mac1609_4 	SlotsBackoff 	0
scalar IntersectionExampleScenario.node[1].nic.mac1609_4 	NumInternalContention 	0
scalar IntersectionExampleScenario.node[1].nic.mac1609_4 	totalBusyTime 	0
scalar IntersectionExampleScenario.node[1].veinsmobility 	startTime 	8
scalar IntersectionExampleScenario.node[1].veinsmobility 	totalTime 	40
scalar IntersectionExampleScenario.node[1].veinsmobility 	stopTime 	48.25
scalar IntersectionExampleScenario.node[1].veinsmobility 	minSpeed 	5.6500000953674
scalar IntersectionExampleScenario.node[1].veinsmobility 	maxSpeed 	15.375
scalar IntersectionExampleScenario.node[1].veinsmobility 	totalDistance 	550.49430709221
scalar IntersectionExampleScenario.node[1].veinsmobility 	totalCO2Emission 	121.14343128293
scalar IntersectionExampleScenario.node[3].appl 	VehicleRemoved 	0
scalar IntersectionExampleScenario.node[3].appl 	ArrivedAtDest 	1
scalar IntersectionExampleScenario.node[3].appl 	IntersectionEnterTime 	12
scalar IntersectionExampleScenario.node[3].appl 	IntersectionExitTime 	35.027628623997
scalar IntersectionExampleScenario.node[3].appl 	NumberOfCollisions 	0
scalar IntersectionExampleScenario.node[3].nic.phy80211p 	busyTime 	0
scalar IntersectionExampleScenario.node[3].nic.mac1609_4 	ReceivedUnicastPackets 	0
scalar IntersectionExampleScenario.node[3].nic.mac1609_4 	ReceivedBroadcasts 	0
scalar IntersectionExampleScenario.node[3].nic.mac1609_4 	SentPackets 	0
scalar IntersectionExampleScenario.node[3].nic.mac1609_4 	SNIRLostPackets 	0
scalar IntersectionExampleScenario.node[3].nic.mac1609_4 	RXTXLostPackets 	0
scalar IntersectionExampleScenario.node[3].nic.mac1609_4 	TotalLostPackets 	0
scalar IntersectionExampleScenario.node[3].nic.mac1609_4 	DroppedPacketsInMac 	0
scalar IntersectionExampleScenario.node[3].nic.mac1609_4 	TooLittleTime 	0
scalar IntersectionExampleScenario.node[3].nic.mac1609_4 	TimesIntoBackoff 	0
scalar IntersectionExampleScenario.node[3].nic.mac1609_4 	SlotsBackoff 	0
scalar IntersectionExampleScenario.node[3].nic.mac1609_4 	NumInternalContention 	0
scalar IntersectionExampleScenario.node[3].nic.mac1609_4 	totalBusyTime 	0
scalar IntersectionExampleScenario.node[3].veinsmobility 	startTime 	12
scalar IntersectionExampleScenario.node[3].veinsmobility 	totalTime 	39
scalar IntersectionExampleScenario.node[3].veinsmobility 	stopTime 	51.25
scalar IntersectionExampleScenario.node[3].veinsmobility 	minSpeed 	5.6500000953674
scalar IntersectionExampleScenario.node[3].veinsmobility 	maxSpeed 	16
scalar IntersectionExampleScenario.node[3].veinsmobility 	totalDistance 	551.94966752721
scalar IntersectionExampleScenario.node[3].veinsmobility 	totalCO2Emission 	125.13138713895
scalar IntersectionExampleScenario.node[5].appl 	VehicleRemoved 	0
scalar IntersectionExampleScenario.node[5].appl 	ArrivedAtDest 	1
scalar IntersectionExampleScenario.node[5].appl 	IntersectionEnterTime 	13.25
scalar IntersectionExampleScenario.node[5].appl 	IntersectionExitTime 	36.61931101582
scalar IntersectionExampleScenario.node[5].appl 	NumberOfCollisions 	0
scalar IntersectionExampleScenario.node[5].nic.phy80211p 	busyTime 	0
scalar IntersectionExampleScenario.node[5].nic.mac1609_4 	ReceivedUnicastPackets 	0
scalar IntersectionExampleScenario.node[5].nic.mac1609_4 	ReceivedBroadcasts 	0
scalar IntersectionExampleScenario.node[5].nic.mac1609_4 	SentPackets 	0
scalar IntersectionExampleScenario.node[5].nic.mac1609_4 	SNIRLostPackets 	0
scalar IntersectionExampleScenario.node[5].nic.mac1609_4 	RXTXLostPackets 	0
scalar IntersectionExampleScenario.node[5].nic.mac1609_4 	TotalLostPackets 	0
scalar IntersectionExampleScenario.node[5].nic.mac1609_4 	DroppedPacketsInMac 	0
scalar IntersectionExampleScenario.node[5].nic.mac1609_4 	TooLittleTime 	0
scalar IntersectionExampleScenario.node[5].nic.mac1609_4 	TimesIntoBackoff 	0
scalar IntersectionExampleScenario.node[5].nic.mac1609_4 	SlotsBackoff 	0
scalar IntersectionExampleScenario.node[5].nic.mac1609_4 	NumInternalContention 	0
scalar IntersectionExampleScenario.node[5].nic.mac1609_4 	totalBusyTime 	0
scalar IntersectionExampleScenario.node[5].veinsmobility 	startTime 	13.25
scalar IntersectionExampleScenario.node[5].veinsmobility 	totalTime 	39.5
scalar IntersectionExampleScenario.node[5].veinsmobility 	stopTime 	53
scalar IntersectionExampleScenario.node[5].veinsmobility 	minSpeed 	5.6500000953674
scalar IntersectionExampleScenario.node[5].veinsmobility 	maxSpeed 	15.453654289246
scalar IntersectionExampleScenario.node[5].veinsmobility 	totalDistance 	550.77985693351
scalar IntersectionExampleScenario.node[5].veinsmobility 	totalCO2Emission 	122.82758269766
scalar IntersectionExampleScenario.node[2].appl 	VehicleRemoved 	0
scalar IntersectionExampleScenario.node[2].appl 	ArrivedAtDest 	1
scalar IntersectionExampleScenario.node[2].appl 	IntersectionEnterTime 	10.25
scalar IntersectionExampleScenario.node[2].appl 	IntersectionExitTime 	38.600255889847
scalar IntersectionExampleScenario.node[2].appl 	NumberOfCollisions 	0
scalar IntersectionExampleScenario.node[2].nic.phy80211p 	busyTime 	0
scalar IntersectionExampleScenario.node[2].nic.mac1609_4 	ReceivedUnicastPackets 	0
scalar IntersectionExampleScenario.node[2].nic.mac1609_4 	ReceivedBroadcasts 	0
scalar IntersectionExampleScenario.node[2].nic.mac1609_4 	SentPackets 	0
scalar IntersectionExampleScenario.node[2].nic.mac1609_4 	SNIRLostPackets 	0
scalar IntersectionExampleScenario.node[2].nic.mac1609_4 	RXTXLostPackets 	0
scalar IntersectionExampleScenario.node[2].nic.mac1609_4 	TotalLostPackets 	0
scalar IntersectionExampleScenario.node[2].nic.mac1609_4 	DroppedPacketsInMac 	0
scalar IntersectionExampleScenario.node[2].nic.mac1609_4 	TooLittleTime 	0
scalar IntersectionExampleScenario.node[2].nic.mac1609_4 	TimesIntoBackoff 	0
scalar IntersectionExampleScenario.node[2].nic.mac1609_4 	SlotsBackoff 	0
scalar IntersectionExampleScenario.node[2].nic.mac1609_4 	NumInternalContention 	0
scalar IntersectionExampleScenario.node[2].nic.mac1609_4 	totalBusyTime 	0
scalar IntersectionExampleScenario.node[2].veinsmobility 	startTime 	10.25
scalar IntersectionExampleScenario.node[2].veinsmobility 	totalTime 	45
scalar IntersectionExampleScenario.node[2].veinsmobility 	stopTime 	55.5
scalar IntersectionExampleScenario.node[2].veinsmobility 	minSpeed 	0
scalar IntersectionExampleScenario.node[2].veinsmobility 	maxSpeed 	15.875
scalar IntersectionExampleScenario.node[2].veinsmobility 	totalDistance 	546.14745236785
scalar IntersectionExampleScenario.node[2].veinsmobility 	totalCO2Emission 	138.06868789864
scalar IntersectionExampleScenario.node[4].appl 	VehicleRemoved 	0
scalar IntersectionExampleScenario.node[4].appl 	ArrivedAtDest 	1
scalar IntersectionExampleScenario.node[4].appl 	IntersectionEnterTime 	12
scalar IntersectionExampleScenario.node[4].appl 	IntersectionExitTime 	41.355403086462
scalar IntersectionExampleScenario.node[4].appl 	NumberOfCollisions 	0
scalar IntersectionExampleScenario.node[4].nic.phy80211p 	busyTime 	0
scalar IntersectionExampleScenario.node[4].nic.mac1609_4 	ReceivedUnicastPackets 	0
scalar IntersectionExampleScenario.node[4].nic.mac1609_4 	ReceivedBroadcasts 	0
scalar IntersectionExampleScenario.node[4].nic.mac1609_4 	SentPackets 	0
scalar IntersectionExampleScenario.node[4].nic.mac1609_4 	SNIRLostPackets 	0
scalar IntersectionExampleScenario.node[4].nic.mac1609_4 	RXTXLostPackets 	0
scalar IntersectionExampleScenario.node[4].nic.mac1609_4 	TotalLostPackets 	0
scalar IntersectionExampleScenario.node[4].nic.mac1609_4 	DroppedPacketsInMac 	0
scalar IntersectionExampleScenario.node[4].nic.mac1609_4 	TooLittleTime 	0
scalar IntersectionExampleScenario.node[4].nic.mac1609_4 	TimesIntoBackoff 	0
scalar IntersectionExampleScenario.node[4].nic.mac1609_4 	SlotsBackoff 	0
scalar IntersectionExampleScenario.node[4].nic.mac1609_4 	NumInternalContention 	0
scalar IntersectionExampleScenario.node[4].nic.mac1609_4 	totalBusyTime 	0
scalar IntersectionExampleScenario.node[4].veinsmobility 	startTime 	12
scalar IntersectionExampleScenario.node[4].veinsmobility 	totalTime 	46
scalar IntersectionExampleScenario.node[4].veinsmobility 	stopTime 	58.25
scalar IntersectionExampleScenario.node[4].veinsmobility 	minSpeed 	0.84325170516968
scalar IntersectionExampleScenario.node[4].veinsmobility 	maxSpeed 	15.64999961853
scalar IntersectionExampleScenario.node[4].veinsmobility 	totalDistance 	564.37003444517
scalar IntersectionExampleScenario.node[4].veinsmobility 	totalCO2Emission 	138.61588623073
scalar IntersectionExampleScenario.node[6].appl 	VehicleRemoved 	0
scalar IntersectionExampleScenario.node[6].appl 	ArrivedAtDest 	1
scalar IntersectionExampleScenario.node[6].appl 	IntersectionEnterTime 	16.5
scalar IntersectionExampleScenario.node[6].appl 	IntersectionExitTime 	44.112137322925
scalar IntersectionExampleScenario.node[6].appl 	NumberOfCollisions 	0
scalar IntersectionExampleScenario.node[6].nic.phy80211p 	busyTime 	0
scalar IntersectionExampleScenario.node[6].nic.mac1609_4 	ReceivedUnicastPackets 	0
scalar IntersectionExampleScenario.node[6].nic.mac1609_4 	ReceivedBroadcasts 	0
scalar IntersectionExampleScenario.node[6].nic.mac1609_4 	SentPackets 	0
scalar IntersectionExampleScenario.node[6].nic.mac1609_4 	SNIRLostPackets 	0
scalar IntersectionExampleScenario.node[6].nic.mac1609_4 	RXTXLostPackets 	0
scalar IntersectionExampleScenario.node[6].nic.mac1609_4 	TotalLostPackets 	0
scalar IntersectionExampleScenario.node[6].nic.mac1609_4 	DroppedPacketsInMac 	0
scalar IntersectionExampleScenario.node[6].nic.mac1609_4 	TooLittleTime 	0
scalar IntersectionExampleScenario.node[6].nic.mac1609_4 	TimesIntoBackoff 	0
scalar IntersectionExampleScenario.node[6].nic.mac1609_4 	SlotsBackoff 	0
scalar IntersectionExampleScenario.node[6].nic.mac1609_4 	NumInternalContention 	0
scalar IntersectionExampleScenario.node[6].nic.mac1609_4 	totalBusyTime 	0
scalar IntersectionExampleScenario.node[6].veinsmobility 	startTime 	16.5
scalar IntersectionExampleScenario.node[6].veinsmobility 	totalTime 	44.5
scalar IntersectionExampleScenario.node[6].veinsmobility 	stopTime 	61.25
scalar IntersectionExampleScenario.node[6].veinsmobility 	minSpeed 	5.6500000953674
scalar IntersectionExampleScenario.node[6].veinsmobility 	maxSpeed 	15.25
scalar IntersectionExampleScenario.node[6].veinsmobility 	totalDistance 	557.7385033045
scalar IntersectionExampleScenario.node[6].veinsmobility 	totalCO2Emission 	134.30883426181
scalar IntersectionExampleScenario.node[7].appl 	VehicleRemoved 	0
scalar IntersectionExampleScenario.node[7].appl 	ArrivedAtDest 	1
scalar IntersectionExampleScenario.node[7].appl 	IntersectionEnterTime 	36
scalar IntersectionExampleScenario.node[7].appl 	IntersectionExitTime 	58.317900314461
scalar IntersectionExampleScenario.node[7].appl 	NumberOfCollisions 	0
scalar IntersectionExampleScenario.node[7].nic.phy80211p 	busyTime 	0
scalar IntersectionExampleScenario.node[7].nic.mac1609_4 	ReceivedUnicastPackets 	0
scalar IntersectionExampleScenario.node[7].nic.mac1609_4 	ReceivedBroadcasts 	0
scalar IntersectionExampleScenario.node[7].nic.mac1609_4 	SentPackets 	0
scalar IntersectionExampleScenario.node[7].nic.mac1609_4 	SNIRLostPackets 	0
scalar IntersectionExampleScenario.node[7].nic.mac1609_4 	RXTXLostPackets 	0
scalar IntersectionExampleScenario.node[7].nic.mac1609_4 	TotalLostPackets 	0
scalar IntersectionExampleScenario.node[7].nic.mac1609_4 	DroppedPacketsInMac 	0
scalar IntersectionExampleScenario.node[7].nic.mac1609_4 	TooLittleTime 	0
scalar IntersectionExampleScenario.node[7].nic.mac1609_4 	TimesIntoBackoff 	0
scalar IntersectionExampleScenario.node[7].nic.mac1609_4 	SlotsBackoff 	0
scalar IntersectionExampleScenario.node[7].nic.mac1609_4 	NumInternalContention 	0
scalar IntersectionExampleScenario.node[7].nic.mac1609_4 	totalBusyTime 	0
scalar IntersectionExampleScenario.node[7].veinsmobility 	startTime 	36
scalar IntersectionExampleScenario.node[7].veinsmobility 	totalTime 	38
scalar IntersectionExampleScenario.node[7].veinsmobility 	stopTime 	74.25
scalar IntersectionExampleScenario.node[7].veinsmobility 	minSpeed 	5.6500000953674
scalar IntersectionExampleScenario.node[7].veinsmobility 	maxSpeed 	16.27499961853
scalar IntersectionExampleScenario.node[7].veinsmobility 	totalDistance 	554.32373046875
scalar IntersectionExampleScenario.node[7].veinsmobility 	totalCO2Emission 	121.15983077611
scalar IntersectionExampleScenario.node[8].appl 	VehicleRemoved 	0
scalar IntersectionExampleScenario.node[8].appl 	ArrivedAtDest 	1
scalar IntersectionExampleScenario.node[8].appl 	IntersectionEnterTime 	42.25
scalar IntersectionExampleScenario.node[8].appl 	IntersectionExitTime 	64.613582844206
scalar IntersectionExampleScenario.node[8].appl 	NumberOfCollisions 	0
scalar IntersectionExampleScenario.node[8].nic.phy80211p 	busyTime 	0
scalar IntersectionExampleScenario.node[8].nic.mac1609_4 	ReceivedUnicastPackets 	0
scalar IntersectionExampleScenario.node[8].nic.mac1609_4 	ReceivedBroadcasts 	0
scalar IntersectionExampleScenario.node[8].nic.mac1609_4 	SentPackets 	0
scalar IntersectionExampleScenario.node[8].nic.mac1609_4 	SNIRLostPackets 	0
scalar IntersectionExampleScenario.node[8].nic.mac1609_4 	RXTXLostPackets 	0
scalar IntersectionExampleScenario.node[8].nic.mac1609_4 	TotalLostPackets 	0
scalar IntersectionExampleScenario.node[8].nic.mac1609_4 	DroppedPacketsInMac 	0
scalar IntersectionExampleScenario.node[8].nic.mac1609_4 	TooLittleTime 	0
scalar IntersectionExampleScenario.node[8].nic.mac1609_4 	TimesIntoBackoff 	0
scalar IntersectionExampleScenario.node[8].nic.mac1609_4 	SlotsBackoff 	0
scalar IntersectionExampleScenario.node[8].nic.mac1609_4 	NumInternalContention 	0
scalar IntersectionExampleScenario.node[8].nic.mac1609_4 	totalBusyTime 	0
scalar IntersectionExampleScenario.node[8].veinsmobility 	startTime 	42.25
scalar IntersectionExampleScenario.node[8].veinsmobility 	totalTime 	37.75
scalar IntersectionExampleScenario.node[8].veinsmobility 	stopTime 	80.25
scalar IntersectionExampleScenario.node[8].veinsmobility 	minSpeed 	5.6500000953674
scalar IntersectionExampleScenario.node[8].veinsmobility 	maxSpeed 	16.27499961853
scalar IntersectionExampleScenario.node[8].veinsmobility 	totalDistance 	551.43392944336
scalar IntersectionExampleScenario.node[8].veinsmobility 	totalCO2Emission 	120.91989472968
scalar IntersectionExampleScenario.node[10].appl 	VehicleRemoved 	0
scalar IntersectionExampleScenario.node[10].appl 	ArrivedAtDest 	1
scalar IntersectionExampleScenario.node[10].appl 	IntersectionEnterTime 	47.25
scalar IntersectionExampleScenario.node[10].appl 	IntersectionExitTime 	69.826124738989
scalar IntersectionExampleScenario.node[10].appl 	NumberOfCollisions 	0
scalar IntersectionExampleScenario.node[10].nic.phy80211p 	busyTime 	0
scalar IntersectionExampleScenario.node[10].nic.mac1609_4 	ReceivedUnicastPackets 	0
scalar IntersectionExampleScenario.node[10].nic.mac1609_4 	ReceivedBroadcasts 	0
scalar IntersectionExampleScenario.node[10].nic.mac1609_4 	SentPackets 	0
scalar IntersectionExampleScenario.node[10].nic.mac1609_4 	SNIRLostPackets 	0
scalar IntersectionExampleScenario.node[10].nic.mac1609_4 	RXTXLostPackets 	0
scalar IntersectionExampleScenario.node[10].nic.mac1609_4 	TotalLostPackets 	0
scalar IntersectionExampleScenario.node[10].nic.mac1609_4 	DroppedPacketsInMac 	0
scalar IntersectionExampleScenario.node[10].nic.mac1609_4 	TooLittleTime 	0
scalar IntersectionExampleScenario.node[10].nic.mac1609_4 	TimesIntoBackoff 	0
scalar IntersectionExampleScenario.node[10].nic.mac1609_4 	SlotsBackoff 	0
scalar IntersectionExampleScenario.node[10].nic.mac1609_4 	NumInternalContention 	0
scalar IntersectionExampleScenario.node[10].nic.mac1609_4 	totalBusyTime 	0
scalar IntersectionExampleScenario.node[10].veinsmobility 	startTime 	47.25
scalar IntersectionExampleScenario.node[10].veinsmobility 	totalTime 	38.25
scalar IntersectionExampleScenario.node[10].veinsmobility 	stopTime 	85.75
scalar IntersectionExampleScenario.node[10].veinsmobility 	minSpeed 	5.6500000953674
scalar IntersectionExampleScenario.node[10].veinsmobility 	maxSpeed 	16.27499961853
scalar IntersectionExampleScenario.node[10].veinsmobility 	totalDistance 	550.66821123556
scalar IntersectionExampleScenario.node[10].veinsmobility 	totalCO2Emission 	127.41359462882
scalar IntersectionExampleScenario.node[11].appl 	VehicleRemoved 	0
scalar IntersectionExampleScenario.node[11].appl 	ArrivedAtDest 	1
scalar IntersectionExampleScenario.node[11].appl 	IntersectionEnterTime 	47.75
scalar IntersectionExampleScenario.node[11].appl 	IntersectionExitTime 	89.766852716653
scalar IntersectionExampleScenario.node[11].appl 	NumberOfCollisions 	0
scalar IntersectionExampleScenario.node[11].nic.phy80211p 	busyTime 	0
scalar IntersectionExampleScenario.node[11].nic.mac1609_4 	ReceivedUnicastPackets 	0
scalar IntersectionExampleScenario.node[11].nic.mac1609_4 	ReceivedBroadcasts 	0
scalar IntersectionExampleScenario.node[11].nic.mac1609_4 	SentPackets 	0
scalar IntersectionExampleScenario.node[11].nic.mac1609_4 	SNIRLostPackets 	0
scalar IntersectionExampleScenario.node[11].nic.mac1609_4 	RXTXLostPackets 	0
scalar IntersectionExampleScenario.node[11].nic.mac1609_4 	TotalLostPackets 	0
scalar IntersectionExampleScenario.node[11].nic.mac1609_4 	DroppedPacketsInMac 	0
scalar IntersectionExampleScenario.node[11].nic.mac1609_4 	TooLittleTime 	0
scalar IntersectionExampleScenario.node[11].nic.mac1609_4 	TimesIntoBackoff 	0
scalar IntersectionExampleScenario.node[11].nic.mac1609_4 	SlotsBackoff 	0
scalar IntersectionExampleScenario.node[11].nic.mac1609_4 	NumInternalContention 	0
scalar IntersectionExampleScenario.node[11].nic.mac1609_4 	totalBusyTime 	0
scalar IntersectionExampleScenario.node[11].veinsmobility 	startTime 	47.75
scalar IntersectionExampleScenario.node[11].veinsmobility 	totalTime 	58.25
scalar IntersectionExampleScenario.node[11].veinsmobility 	stopTime 	106.25
scalar IntersectionExampleScenario.node[11].veinsmobility 	minSpeed 	0
scalar IntersectionExampleScenario.node[11].veinsmobility 	maxSpeed 	15.64999961853
scalar IntersectionExampleScenario.node[11].veinsmobility 	totalDistance 	551.43346529436
scalar IntersectionExampleScenario.node[11].veinsmobility 	totalCO2Emission 	150.76015641846
scalar IntersectionExampleScenario.node[14].appl 	VehicleRemoved 	0
scalar IntersectionExampleScenario.node[14].appl 	ArrivedAtDest 	1
scalar IntersectionExampleScenario.node[14].appl 	IntersectionEnterTime 	50.25
scalar IntersectionExampleScenario.node[14].appl 	IntersectionExitTime 	90.250045203575
scalar IntersectionExampleScenario.node[14].appl 	NumberOfCollisions 	0
scalar IntersectionExampleScenario.node[14].nic.phy80211p 	busyTime 	0
scalar IntersectionExampleScenario.node[14].nic.mac1609_4 	ReceivedUnicastPackets 	0
scalar IntersectionExampleScenario.node[14].nic.mac1609_4 	ReceivedBroadcasts 	0
scalar IntersectionExampleScenario.node[14].nic.mac1609_4 	SentPackets 	0
scalar IntersectionExampleScenario.node[14].nic.mac1609_4 	SNIRLostPackets 	0
scalar IntersectionExampleScenario.node[14].nic.mac1609_4 	RXTXLostPackets 	0
scalar IntersectionExampleScenario.node[14].nic.mac1609_4 	TotalLostPackets 	0
scalar IntersectionExampleScenario.node[14].nic.mac1609_4 	DroppedPacketsInMac 	0
scalar IntersectionExampleScenario.node[14].nic.mac1609_4 	TooLittleTime 	0
scalar IntersectionExampleScenario.node[14].nic.mac1609_4 	TimesIntoBackoff 	0
scalar IntersectionExampleScenario.node[14].nic.mac1609_4 	SlotsBackoff 	0
scalar IntersectionExampleScenario.node[14].nic.mac1609_4 	NumInternalContention 	0
scalar IntersectionExampleScenario.node[14].nic.mac1609_4 	totalBusyTime 	0
scalar IntersectionExampleScenario.node[14].veinsmobility 	startTime 	50.25
scalar IntersectionExampleScenario.node[14].veinsmobility 	totalTime 	56.25
scalar IntersectionExampleScenario.node[14].veinsmobility 	stopTime 	106.75
scalar IntersectionExampleScenario.node[14].veinsmobility 	minSpeed 	0
scalar IntersectionExampleScenario.node[14].veinsmobility 	maxSpeed 	15.375
scalar IntersectionExampleScenario.node[14].veinsmobility 	totalDistance 	552.79929351807
scalar IntersectionExampleScenario.node[14].veinsmobility 	totalCO2Emission 	146.38866206543
scalar IntersectionExampleScenario.node[13].appl 	VehicleRemoved 	0
scalar IntersectionExampleScenario.node[13].appl 	ArrivedAtDest 	1
scalar IntersectionExampleScenario.node[13].appl 	IntersectionEnterTime 	49.75
scalar IntersectionExampleScenario.node[13].appl 	IntersectionExitTime 	91.320653208066
scalar IntersectionExampleScenario.node[13].appl 	NumberOfCollisions 	0
scalar IntersectionExampleScenario.node[13].nic.phy80211p 	busyTime 	0
scalar IntersectionExampleScenario.node[13].nic.mac1609_4 	ReceivedUnicastPackets 	0
scalar IntersectionExampleScenario.node[13].nic.mac1609_4 	ReceivedBroadcasts 	0
scalar IntersectionExampleScenario.node[13].nic.mac1609_4 	SentPackets 	0
scalar IntersectionExampleScenario.node[13].nic.mac1609_4 	SNIRLostPackets 	0
scalar IntersectionExampleScenario.node[13].nic.mac1609_4 	RXTXLostPackets 	0
scalar IntersectionExampleScenario.node[13].nic.mac1609_4 	TotalLostPackets 	0
scalar IntersectionExampleScenario.node[13].nic.mac1609_4 	DroppedPacketsInMac 	0
scalar IntersectionExampleScenario.node[13].nic.mac1609_4 	TooLittleTime 	0
scalar IntersectionExampleScenario.node[13].nic.mac1609_4 	TimesIntoBackoff 	0
scalar IntersectionExampleScenario.node[13].nic.mac1609_4 	SlotsBackoff 	0
scalar IntersectionExampleScenario.node[13].nic.mac1609_4 	NumInternalContention 	0
scalar IntersectionExampleScenario.node[13].nic.mac1609_4 	totalBusyTime 	0
scalar IntersectionExampleScenario.node[13].veinsmobility 	startTime 	49.75
scalar IntersectionExampleScenario.node[13].veinsmobility 	totalTime 	57.5
scalar IntersectionExampleScenario.node[13].veinsmobility 	stopTime 	107.5
scalar IntersectionExampleScenario.node[13].veinsmobility 	minSpeed 	0
scalar IntersectionExampleScenario.node[13].veinsmobility 	maxSpeed 	15.64999961853
scalar IntersectionExampleScenario.node[13].veinsmobility 	totalDistance 	569.61259460449
scalar IntersectionExampleScenario.node[13].veinsmobility 	totalCO2Emission 	151.39573374381
scalar IntersectionExampleScenario.node[15].appl 	VehicleRemoved 	0
scalar IntersectionExampleScenario.node[15].appl 	ArrivedAtDest 	1
scalar IntersectionExampleScenario.node[15].appl 	IntersectionEnterTime 	54.75
scalar IntersectionExampleScenario.node[15].appl 	IntersectionExitTime 	92.314613574737
scalar IntersectionExampleScenario.node[15].appl 	NumberOfCollisions 	0
scalar IntersectionExampleScenario.node[15].nic.phy80211p 	busyTime 	0
scalar IntersectionExampleScenario.node[15].nic.mac1609_4 	ReceivedUnicastPackets 	0
scalar IntersectionExampleScenario.node[15].nic.mac1609_4 	ReceivedBroadcasts 	0
scalar IntersectionExampleScenario.node[15].nic.mac1609_4 	SentPackets 	0
scalar IntersectionExampleScenario.node[15].nic.mac1609_4 	SNIRLostPackets 	0
scalar IntersectionExampleScenario.node[15].nic.mac1609_4 	RXTXLostPackets 	0
scalar IntersectionExampleScenario.node[15].nic.mac1609_4 	TotalLostPackets 	0
scalar IntersectionExampleScenario.node[15].nic.mac1609_4 	DroppedPacketsInMac 	0
scalar IntersectionExampleScenario.node[15].nic.mac1609_4 	TooLittleTime 	0
scalar IntersectionExampleScenario.node[15].nic.mac1609_4 	TimesIntoBackoff 	0
scalar IntersectionExampleScenario.node[15].nic.mac1609_4 	SlotsBackoff 	0
scalar IntersectionExampleScenario.node[15].nic.mac1609_4 	NumInternalContention 	0
scalar IntersectionExampleScenario.node[15].nic.mac1609_4 	totalBusyTime 	0
scalar IntersectionExampleScenario.node[15].veinsmobility 	startTime 	54.75
scalar IntersectionExampleScenario.node[15].veinsmobility 	totalTime 	53.5
scalar IntersectionExampleScenario.node[15].veinsmobility 	stopTime 	108.5
scalar IntersectionExampleScenario.node[15].veinsmobility 	minSpeed 	0
scalar IntersectionExampleScenario.node[15].veinsmobility 	maxSpeed 	15.19723033905
scalar IntersectionExampleScenario.node[15].veinsmobility 	totalDistance 	551.78769683838
scalar IntersectionExampleScenario.node[15].veinsmobility 	totalCO2Emission 	142.7922243086
scalar IntersectionExampleScenario.node[19].appl 	VehicleRemoved 	0
scalar IntersectionExampleScenario.node[19].appl 	ArrivedAtDest 	1
scalar IntersectionExampleScenario.node[19].appl 	IntersectionEnterTime 	66.5
scalar IntersectionExampleScenario.node[19].appl 	IntersectionExitTime 	93.266628867161
scalar IntersectionExampleScenario.node[19].appl 	NumberOfCollisions 	0
scalar IntersectionExampleScenario.node[19].nic.phy80211p 	busyTime 	0
scalar IntersectionExampleScenario.node[19].nic.mac1609_4 	ReceivedUnicastPackets 	0
scalar IntersectionExampleScenario.node[19].nic.mac1609_4 	ReceivedBroadcasts 	0
scalar IntersectionExampleScenario.node[19].nic.mac1609_4 	SentPackets 	0
scalar IntersectionExampleScenario.node[19].nic.mac1609_4 	SNIRLostPackets 	0
scalar IntersectionExampleScenario.node[19].nic.mac1609_4 	RXTXLostPackets 	0
scalar IntersectionExampleScenario.node[19].nic.mac1609_4 	TotalLostPackets 	0
scalar IntersectionExampleScenario.node[19].nic.mac1609_4 	DroppedPacketsInMac 	0
scalar IntersectionExampleScenario.node[19].nic.mac1609_4 	TooLittleTime 	0
scalar IntersectionExampleScenario.node[19].nic.mac1609_4 	TimesIntoBackoff 	0
scalar IntersectionExampleScenario.node[19].nic.mac1609_4 	SlotsBackoff 	0
scalar IntersectionExampleScenario.node[19].nic.mac1609_4 	NumInternalContention 	0
scalar IntersectionExampleScenario.node[19].nic.mac1609_4 	totalBusyTime 	0
scalar IntersectionExampleScenario.node[19].veinsmobility 	startTime 	66.5
scalar IntersectionExampleScenario.node[19].veinsmobility 	totalTime 	43
scalar IntersectionExampleScenario.node[19].veinsmobility 	stopTime 	109.75
scalar IntersectionExampleScenario.node[19].veinsmobility 	minSpeed 	5.6500000953674
scalar IntersectionExampleScenario.node[19].veinsmobility 	maxSpeed 	15.64999961853
scalar IntersectionExampleScenario.node[19].veinsmobility 	totalDistance 	549.34775939228
scalar IntersectionExampleScenario.node[19].veinsmobility 	totalCO2Emission 	135.20680368001
scalar IntersectionExampleScenario.node[18].appl 	VehicleRemoved 	0
scalar IntersectionExampleScenario.node[18].appl 	ArrivedAtDest 	1
scalar IntersectionExampleScenario.node[18].appl 	IntersectionEnterTime 	64.75
scalar IntersectionExampleScenario.node[18].appl 	IntersectionExitTime 	93.866252858046
scalar IntersectionExampleScenario.node[18].appl 	NumberOfCollisions 	0
scalar IntersectionExampleScenario.node[18].nic.phy80211p 	busyTime 	0
scalar IntersectionExampleScenario.node[18].nic.mac1609_4 	ReceivedUnicastPackets 	0
scalar IntersectionExampleScenario.node[18].nic.mac1609_4 	ReceivedBroadcasts 	0
scalar IntersectionExampleScenario.node[18].nic.mac1609_4 	SentPackets 	0
scalar IntersectionExampleScenario.node[18].nic.mac1609_4 	SNIRLostPackets 	0
scalar IntersectionExampleScenario.node[18].nic.mac1609_4 	RXTXLostPackets 	0
scalar IntersectionExampleScenario.node[18].nic.mac1609_4 	TotalLostPackets 	0
scalar IntersectionExampleScenario.node[18].nic.mac1609_4 	DroppedPacketsInMac 	0
scalar IntersectionExampleScenario.node[18].nic.mac1609_4 	TooLittleTime 	0
scalar IntersectionExampleScenario.node[18].nic.mac1609_4 	TimesIntoBackoff 	0
scalar IntersectionExampleScenario.node[18].nic.mac1609_4 	SlotsBackoff 	0
scalar IntersectionExampleScenario.node[18].nic.mac1609_4 	NumInternalContention 	0
scalar IntersectionExampleScenario.node[18].nic.mac1609_4 	totalBusyTime 	0
scalar IntersectionExampleScenario.node[18].veinsmobility 	startTime 	64.75
scalar IntersectionExampleScenario.node[18].veinsmobility 	totalTime 	45.25
scalar IntersectionExampleScenario.node[18].veinsmobility 	stopTime 	110.25
scalar IntersectionExampleScenario.node[18].veinsmobility 	minSpeed 	4.0027132034302
scalar IntersectionExampleScenario.node[18].veinsmobility 	maxSpeed 	15.64999961853
scalar IntersectionExampleScenario.node[18].veinsmobility 	totalDistance 	552.08933532814
scalar IntersectionExampleScenario.node[18].veinsmobility 	totalCO2Emission 	136.53083670424
scalar IntersectionExampleScenario.node[21].appl 	VehicleRemoved 	0
scalar IntersectionExampleScenario.node[21].appl 	ArrivedAtDest 	1
scalar IntersectionExampleScenario.node[21].appl 	IntersectionEnterTime 	77.5
scalar IntersectionExampleScenario.node[21].appl 	IntersectionExitTime 	100.25796507078
scalar IntersectionExampleScenario.node[21].appl 	NumberOfCollisions 	0
scalar IntersectionExampleScenario.node[21].nic.phy80211p 	busyTime 	0
scalar IntersectionExampleScenario.node[21].nic.mac1609_4 	ReceivedUnicastPackets 	0
scalar IntersectionExampleScenario.node[21].nic.mac1609_4 	ReceivedBroadcasts 	0
scalar IntersectionExampleScenario.node[21].nic.mac1609_4 	SentPackets 	0
scalar IntersectionExampleScenario.node[21].nic.mac1609_4 	SNIRLostPackets 	0
scalar IntersectionExampleScenario.node[21].nic.mac1609_4 	RXTXLostPackets 	0
scalar IntersectionExampleScenario.node[21].nic.mac1609_4 	TotalLostPackets 	0
scalar IntersectionExampleScenario.node[21].nic.mac1609_4 	DroppedPacketsInMac 	0
scalar IntersectionExampleScenario.node[21].nic.mac1609_4 	TooLittleTime 	0
scalar IntersectionExampleScenario.node[21].nic.mac1609_4 	TimesIntoBackoff 	0
scalar IntersectionExampleScenario.node[21].nic.mac1609_4 	SlotsBackoff 	0
scalar IntersectionExampleScenario.node[21].nic.mac1609_4 	NumInternalContention 	0
scalar IntersectionExampleScenario.node[21].nic.mac1609_4 	totalBusyTime 	0
scalar IntersectionExampleScenario.node[21].veinsmobility 	startTime 	77.5
scalar IntersectionExampleScenario.node[21].veinsmobility 	totalTime 	38.75
scalar IntersectionExampleScenario.node[21].veinsmobility 	stopTime 	116.5
scalar IntersectionExampleScenario.node[21].veinsmobility 	minSpeed 	5.6500000953674
scalar IntersectionExampleScenario.node[21].veinsmobility 	maxSpeed 	15.64999961853
scalar IntersectionExampleScenario.node[21].veinsmobility 	totalDistance 	553.98718261719
scalar IntersectionExampleScenario.node[21].veinsmobility 	totalCO2Emission 	118.09265819258
scalar IntersectionExampleScenario.node[23].appl 	VehicleRemoved 	0
scalar IntersectionExampleScenario.node[23].appl 	ArrivedAtDest 	1
scalar IntersectionExampleScenario.node[23].appl 	IntersectionEnterTime 	79.5
scalar IntersectionExampleScenario.node[23].appl 	IntersectionExitTime 	102.27308911958
scalar IntersectionExampleScenario.node[23].appl 	NumberOfCollisions 	0
scalar IntersectionExampleScenario.node[23].nic.phy80211p 	busyTime 	0
scalar IntersectionExampleScenario.node[23].nic.mac1609_4 	ReceivedUnicastPackets 	0
scalar IntersectionExampleScenario.node[23].nic.mac1609_4 	ReceivedBroadcasts 	0
scalar IntersectionExampleScenario.node[23].nic.mac1609_4 	SentPackets 	0
scalar IntersectionExampleScenario.node[23].nic.mac1609_4 	SNIRLostPackets 	0
scalar IntersectionExampleScenario.node[23].nic.mac1609_4 	RXTXLostPackets 	0
scalar IntersectionExampleScenario.node[23].nic.mac1609_4 	TotalLostPackets 	0
scalar IntersectionExampleScenario.node[23].nic.mac1609_4 	DroppedPacketsInMac 	0
scalar IntersectionExampleScenario.node[23].nic.mac1609_4 	TooLittleTime 	0
scalar IntersectionExampleScenario.node[23].nic.mac1609_4 	TimesIntoBackoff 	0
scalar IntersectionExampleScenario.node[23].nic.mac1609_4 	SlotsBackoff 	0
scalar IntersectionExampleScenario.node[23].nic.mac1609_4 	NumInternalContention 	0
scalar IntersectionExampleScenario.node[23].nic.mac1609_4 	totalBusyTime 	0
scalar IntersectionExampleScenario.node[23].veinsmobility 	startTime 	79.5
scalar IntersectionExampleScenario.node[23].veinsmobility 	totalTime 	38.5
scalar IntersectionExampleScenario.node[23].veinsmobility 	stopTime 	118.25
scalar IntersectionExampleScenario.node[23].veinsmobility 	minSpeed 	5.6500000953674
scalar IntersectionExampleScenario.node[23].veinsmobility 	maxSpeed 	15.64999961853
scalar IntersectionExampleScenario.node[23].veinsmobility 	totalDistance 	552.84366607666
scalar IntersectionExampleScenario.node[23].veinsmobility 	totalCO2Emission 	118.731308559
scalar IntersectionExampleScenario.node[22].appl 	VehicleRemoved 	0
scalar IntersectionExampleScenario.node[22].appl 	ArrivedAtDest 	1
scalar IntersectionExampleScenario.node[22].appl 	IntersectionEnterTime 	78.25
scalar IntersectionExampleScenario.node[22].appl 	IntersectionExitTime 	102.85877268476
scalar IntersectionExampleScenario.node[22].appl 	NumberOfCollisions 	0
scalar IntersectionExampleScenario.node[22].nic.phy80211p 	busyTime 	0
scalar IntersectionExampleScenario.node[22].nic.mac1609_4 	ReceivedUnicastPackets 	0
scalar IntersectionExampleScenario.node[22].nic.mac1609_4 	ReceivedBroadcasts 	0
scalar IntersectionExampleScenario.node[22].nic.mac1609_4 	SentPackets 	0
scalar IntersectionExampleScenario.node[22].nic.mac1609_4 	SNIRLostPackets 	0
scalar IntersectionExampleScenario.node[22].nic.mac1609_4 	RXTXLostPackets 	0
scalar IntersectionExampleScenario.node[22].nic.mac1609_4 	TotalLostPackets 	0
scalar IntersectionExampleScenario.node[22].nic.mac1609_4 	DroppedPacketsInMac 	0
scalar IntersectionExampleScenario.node[22].nic.mac1609_4 	TooLittleTime 	0
scalar IntersectionExampleScenario.node[22].nic.mac1609_4 	TimesIntoBackoff 	0
scalar IntersectionExampleScenario.node[22].nic.mac1609_4 	SlotsBackoff 	0
scalar IntersectionExampleScenario.node[22].nic.mac1609_4 	NumInternalContention 	0
scalar IntersectionExampleScenario.node[22].nic.mac1609_4 	totalBusyTime 	0
scalar IntersectionExampleScenario.node[22].veinsmobility 	startTime 	78.25
scalar IntersectionExampleScenario.node[22].veinsmobility 	totalTime 	41
scalar IntersectionExampleScenario.node[22].veinsmobility 	stopTime 	119.5
scalar IntersectionExampleScenario.node[22].veinsmobility 	minSpeed 	5.6500000953674
scalar IntersectionExampleScenario.node[22].veinsmobility 	maxSpeed 	15.875
scalar IntersectionExampleScenario.node[22].veinsmobility 	totalDistance 	569.03778774154
scalar IntersectionExampleScenario.node[22].veinsmobility 	totalCO2Emission 	131.87694249737
scalar IntersectionExampleScenario.node[24].appl 	VehicleRemoved 	0
scalar IntersectionExampleScenario.node[24].appl 	ArrivedAtDest 	1
scalar IntersectionExampleScenario.node[24].appl 	IntersectionEnterTime 	82.75
scalar IntersectionExampleScenario.node[24].appl 	IntersectionExitTime 	107.05541408647
scalar IntersectionExampleScenario.node[24].appl 	NumberOfCollisions 	0
scalar IntersectionExampleScenario.node[24].nic.phy80211p 	busyTime 	0
scalar IntersectionExampleScenario.node[24].nic.mac1609_4 	ReceivedUnicastPackets 	0
scalar IntersectionExampleScenario.node[24].nic.mac1609_4 	ReceivedBroadcasts 	0
scalar IntersectionExampleScenario.node[24].nic.mac1609_4 	SentPackets 	0
scalar IntersectionExampleScenario.node[24].nic.mac1609_4 	SNIRLostPackets 	0
scalar IntersectionExampleScenario.node[24].nic.mac1609_4 	RXTXLostPackets 	0
scalar IntersectionExampleScenario.node[24].nic.mac1609_4 	TotalLostPackets 	0
scalar IntersectionExampleScenario.node[24].nic.mac1609_4 	DroppedPacketsInMac 	0
scalar IntersectionExampleScenario.node[24].nic.mac1609_4 	TooLittleTime 	0
scalar IntersectionExampleScenario.node[24].nic.mac1609_4 	TimesIntoBackoff 	0
scalar IntersectionExampleScenario.node[24].nic.mac1609_4 	SlotsBackoff 	0
scalar IntersectionExampleScenario.node[24].nic.mac1609_4 	NumInternalContention 	0
scalar IntersectionExampleScenario.node[24].nic.mac1609_4 	totalBusyTime 	0
scalar IntersectionExampleScenario.node[24].veinsmobility 	startTime 	82.75
scalar IntersectionExampleScenario.node[24].veinsmobility 	totalTime 	41
scalar IntersectionExampleScenario.node[24].veinsmobility 	stopTime 	124
scalar IntersectionExampleScenario.node[24].veinsmobility 	minSpeed 	5.6500000953674
scalar IntersectionExampleScenario.node[24].veinsmobility 	maxSpeed 	15.875
scalar IntersectionExampleScenario.node[24].veinsmobility 	totalDistance 	560.31152587821
scalar IntersectionExampleScenario.node[24].veinsmobility 	totalCO2Emission 	130.71862100587
scalar IntersectionExampleScenario.node[27].appl 	VehicleRemoved 	0
scalar IntersectionExampleScenario.node[27].appl 	ArrivedAtDest 	1
scalar IntersectionExampleScenario.node[27].appl 	IntersectionEnterTime 	93.25
scalar IntersectionExampleScenario.node[27].appl 	IntersectionExitTime 	116.06903301913
scalar IntersectionExampleScenario.node[27].appl 	NumberOfCollisions 	0
scalar IntersectionExampleScenario.node[27].nic.phy80211p 	busyTime 	0
scalar IntersectionExampleScenario.node[27].nic.mac1609_4 	ReceivedUnicastPackets 	0
scalar IntersectionExampleScenario.node[27].nic.mac1609_4 	ReceivedBroadcasts 	0
scalar IntersectionExampleScenario.node[27].nic.mac1609_4 	SentPackets 	0
scalar IntersectionExampleScenario.node[27].nic.mac1609_4 	SNIRLostPackets 	0
scalar IntersectionExampleScenario.node[27].nic.mac1609_4 	RXTXLostPackets 	0
scalar IntersectionExampleScenario.node[27].nic.mac1609_4 	TotalLostPackets 	0
scalar IntersectionExampleScenario.node[27].nic.mac1609_4 	DroppedPacketsInMac 	0
scalar IntersectionExampleScenario.node[27].nic.mac1609_4 	TooLittleTime 	0
scalar IntersectionExampleScenario.node[27].nic.mac1609_4 	TimesIntoBackoff 	0
scalar IntersectionExampleScenario.node[27].nic.mac1609_4 	SlotsBackoff 	0
scalar IntersectionExampleScenario.node[27].nic.mac1609_4 	NumInternalContention 	0
scalar IntersectionExampleScenario.node[27].nic.mac1609_4 	totalBusyTime 	0
scalar IntersectionExampleScenario.node[27].veinsmobility 	startTime 	93.25
scalar IntersectionExampleScenario.node[27].veinsmobility 	totalTime 	38.75
scalar IntersectionExampleScenario.node[27].veinsmobility 	stopTime 	132.25
scalar IntersectionExampleScenario.node[27].veinsmobility 	minSpeed 	5.6500000953674
scalar IntersectionExampleScenario.node[27].veinsmobility 	maxSpeed 	15.64999961853
scalar IntersectionExampleScenario.node[27].veinsmobility 	totalDistance 	552.89630126953
scalar IntersectionExampleScenario.node[27].veinsmobility 	totalCO2Emission 	117.69084027776
scalar IntersectionExampleScenario.node[28].appl 	VehicleRemoved 	0
scalar IntersectionExampleScenario.node[28].appl 	ArrivedAtDest 	1
scalar IntersectionExampleScenario.node[28].appl 	IntersectionEnterTime 	94.5
scalar IntersectionExampleScenario.node[28].appl 	IntersectionExitTime 	119.29927474982
scalar IntersectionExampleScenario.node[28].appl 	NumberOfCollisions 	0
scalar IntersectionExampleScenario.node[28].nic.phy80211p 	busyTime 	0
scalar IntersectionExampleScenario.node[28].nic.mac1609_4 	ReceivedUnicastPackets 	0
scalar IntersectionExampleScenario.node[28].nic.mac1609_4 	ReceivedBroadcasts 	0
scalar IntersectionExampleScenario.node[28].nic.mac1609_4 	SentPackets 	0
scalar IntersectionExampleScenario.node[28].nic.mac1609_4 	SNIRLostPackets 	0
scalar IntersectionExampleScenario.node[28].nic.mac1609_4 	RXTXLostPackets 	0
scalar IntersectionExampleScenario.node[28].nic.mac1609_4 	TotalLostPackets 	0
scalar IntersectionExampleScenario.node[28].nic.mac1609_4 	DroppedPacketsInMac 	0
scalar IntersectionExampleScenario.node[28].nic.mac1609_4 	TooLittleTime 	0
scalar IntersectionExampleScenario.node[28].nic.mac1609_4 	TimesIntoBackoff 	0
scalar IntersectionExampleScenario.node[28].nic.mac1609_4 	SlotsBackoff 	0
scalar IntersectionExampleScenario.node[28].nic.mac1609_4 	NumInternalContention 	0
scalar IntersectionExampleScenario.node[28].nic.mac1609_4 	totalBusyTime 	0
scalar IntersectionExampleScenario.node[28].veinsmobility 	startTime 	94.5
scalar IntersectionExampleScenario.node[28].veinsmobility 	totalTime 	41
scalar IntersectionExampleScenario.node[28].veinsmobility 	stopTime 	135.75
scalar IntersectionExampleScenario.node[28].veinsmobility 	minSpeed 	5.6500000953674
scalar IntersectionExampleScenario.node[28].veinsmobility 	maxSpeed 	15.5
scalar IntersectionExampleScenario.node[28].veinsmobility 	totalDistance 	574.84341430664
scalar IntersectionExampleScenario.node[28].veinsmobility 	totalCO2Emission 	119.52378807812
scalar IntersectionExampleScenario.node[9].appl 	VehicleRemoved 	0
scalar IntersectionExampleScenario.node[9].appl 	ArrivedAtDest 	1
scalar IntersectionExampleScenario.node[9].appl 	IntersectionEnterTime 	47
scalar IntersectionExampleScenario.node[9].appl 	IntersectionExitTime 	125.27261432409
scalar IntersectionExampleScenario.node[9].appl 	NumberOfCollisions 	0
scalar IntersectionExampleScenario.node[9].nic.phy80211p 	busyTime 	0
scalar IntersectionExampleScenario.node[9].nic.mac1609_4 	ReceivedUnicastPackets 	0
scalar IntersectionExampleScenario.node[9].nic.mac1609_4 	ReceivedBroadcasts 	0
scalar IntersectionExampleScenario.node[9].nic.mac1609_4 	SentPackets 	0
scalar IntersectionExampleScenario.node[9].nic.mac1609_4 	SNIRLostPackets 	0
scalar IntersectionExampleScenario.node[9].nic.mac1609_4 	RXTXLostPackets 	0
scalar IntersectionExampleScenario.node[9].nic.mac1609_4 	TotalLostPackets 	0
scalar IntersectionExampleScenario.node[9].nic.mac1609_4 	DroppedPacketsInMac 	0
scalar IntersectionExampleScenario.node[9].nic.mac1609_4 	TooLittleTime 	0
scalar IntersectionExampleScenario.node[9].nic.mac1609_4 	TimesIntoBackoff 	0
scalar IntersectionExampleScenario.node[9].nic.mac1609_4 	SlotsBackoff 	0
scalar IntersectionExampleScenario.node[9].nic.mac1609_4 	NumInternalContention 	0
scalar IntersectionExampleScenario.node[9].nic.mac1609_4 	totalBusyTime 	0
scalar IntersectionExampleScenario.node[9].veinsmobility 	startTime 	47
scalar IntersectionExampleScenario.node[9].veinsmobility 	totalTime 	95
scalar IntersectionExampleScenario.node[9].veinsmobility 	stopTime 	142.25
scalar IntersectionExampleScenario.node[9].veinsmobility 	minSpeed 	0
scalar IntersectionExampleScenario.node[9].veinsmobility 	maxSpeed 	15.02499961853
scalar IntersectionExampleScenario.node[9].veinsmobility 	totalDistance 	553.59945678711
scalar IntersectionExampleScenario.node[9].veinsmobility 	totalCO2Emission 	180.95012262687
scalar IntersectionExampleScenario.node[12].appl 	VehicleRemoved 	0
scalar IntersectionExampleScenario.node[12].appl 	ArrivedAtDest 	1
scalar IntersectionExampleScenario.node[12].appl 	IntersectionEnterTime 	49.5
scalar IntersectionExampleScenario.node[12].appl 	IntersectionExitTime 	126.03849457073
scalar IntersectionExampleScenario.node[12].appl 	NumberOfCollisions 	0
scalar IntersectionExampleScenario.node[12].nic.phy80211p 	busyTime 	0
scalar IntersectionExampleScenario.node[12].nic.mac1609_4 	ReceivedUnicastPackets 	0
scalar IntersectionExampleScenario.node[12].nic.mac1609_4 	ReceivedBroadcasts 	0
scalar IntersectionExampleScenario.node[12].nic.mac1609_4 	SentPackets 	0
scalar IntersectionExampleScenario.node[12].nic.mac1609_4 	SNIRLostPackets 	0
scalar IntersectionExampleScenario.node[12].nic.mac1609_4 	RXTXLostPackets 	0
scalar IntersectionExampleScenario.node[12].nic.mac1609_4 	TotalLostPackets 	0
scalar IntersectionExampleScenario.node[12].nic.mac1609_4 	DroppedPacketsInMac 	0
scalar IntersectionExampleScenario.node[12].nic.mac1609_4 	TooLittleTime 	0
scalar IntersectionExampleScenario.node[12].nic.mac1609_4 	TimesIntoBackoff 	0
scalar IntersectionExampleScenario.node[12].nic.mac1609_4 	SlotsBackoff 	0
scalar IntersectionExampleScenario.node[12].nic.mac1609_4 	NumInternalContention 	0
scalar IntersectionExampleScenario.node[12].nic.mac1609_4 	totalBusyTime 	0
scalar IntersectionExampleScenario.node[12].veinsmobility 	startTime 	49.5
scalar IntersectionExampleScenario.node[12].veinsmobility 	totalTime 	93.5
scalar IntersectionExampleScenario.node[12].veinsmobility 	stopTime 	143.25
scalar IntersectionExampleScenario.node[12].veinsmobility 	minSpeed 	0
scalar IntersectionExampleScenario.node[12].veinsmobility 	maxSpeed 	15.25
scalar IntersectionExampleScenario.node[12].veinsmobility 	totalDistance 	560.29773149
scalar IntersectionExampleScenario.node[12].veinsmobility 	totalCO2Emission 	183.74107964527
scalar IntersectionExampleScenario.node[16].appl 	VehicleRemoved 	0
scalar IntersectionExampleScenario.node[16].appl 	ArrivedAtDest 	1
scalar IntersectionExampleScenario.node[16].appl 	IntersectionEnterTime 	55.25
scalar IntersectionExampleScenario.node[16].appl 	IntersectionExitTime 	128.58712953827
scalar IntersectionExampleScenario.node[16].appl 	NumberOfCollisions 	0
scalar IntersectionExampleScenario.node[16].nic.phy80211p 	busyTime 	0
scalar IntersectionExampleScenario.node[16].nic.mac1609_4 	ReceivedUnicastPackets 	0
scalar IntersectionExampleScenario.node[16].nic.mac1609_4 	ReceivedBroadcasts 	0
scalar IntersectionExampleScenario.node[16].nic.mac1609_4 	SentPackets 	0
scalar IntersectionExampleScenario.node[16].nic.mac1609_4 	SNIRLostPackets 	0
scalar IntersectionExampleScenario.node[16].nic.mac1609_4 	RXTXLostPackets 	0
scalar IntersectionExampleScenario.node[16].nic.mac1609_4 	TotalLostPackets 	0
scalar IntersectionExampleScenario.node[16].nic.mac1609_4 	DroppedPacketsInMac 	0
scalar IntersectionExampleScenario.node[16].nic.mac1609_4 	TooLittleTime 	0
scalar IntersectionExampleScenario.node[16].nic.mac1609_4 	TimesIntoBackoff 	0
scalar IntersectionExampleScenario.node[16].nic.mac1609_4 	SlotsBackoff 	0
scalar IntersectionExampleScenario.node[16].nic.mac1609_4 	NumInternalContention 	0
scalar IntersectionExampleScenario.node[16].nic.mac1609_4 	totalBusyTime 	0
scalar IntersectionExampleScenario.node[16].veinsmobility 	startTime 	55.25
scalar IntersectionExampleScenario.node[16].veinsmobility 	totalTime 	89.5
scalar IntersectionExampleScenario.node[16].veinsmobility 	stopTime 	145
scalar IntersectionExampleScenario.node[16].veinsmobility 	minSpeed 	0
scalar IntersectionExampleScenario.node[16].veinsmobility 	maxSpeed 	15.723292350769
scalar IntersectionExampleScenario.node[16].veinsmobility 	totalDistance 	543.1712229202
scalar IntersectionExampleScenario.node[16].veinsmobility 	totalCO2Emission 	182.12641709553
scalar IntersectionExampleScenario.node[17].appl 	VehicleRemoved 	0
scalar IntersectionExampleScenario.node[17].appl 	ArrivedAtDest 	1
scalar IntersectionExampleScenario.node[17].appl 	IntersectionEnterTime 	56.25
scalar IntersectionExampleScenario.node[17].appl 	IntersectionExitTime 	130.55415279113
scalar IntersectionExampleScenario.node[17].appl 	NumberOfCollisions 	0
scalar IntersectionExampleScenario.node[17].nic.phy80211p 	busyTime 	0
scalar IntersectionExampleScenario.node[17].nic.mac1609_4 	ReceivedUnicastPackets 	0
scalar IntersectionExampleScenario.node[17].nic.mac1609_4 	ReceivedBroadcasts 	0
scalar IntersectionExampleScenario.node[17].nic.mac1609_4 	SentPackets 	0
scalar IntersectionExampleScenario.node[17].nic.mac1609_4 	SNIRLostPackets 	0
scalar IntersectionExampleScenario.node[17].nic.mac1609_4 	RXTXLostPackets 	0
scalar IntersectionExampleScenario.node[17].nic.mac1609_4 	TotalLostPackets 	0
scalar IntersectionExampleScenario.node[17].nic.mac1609_4 	DroppedPacketsInMac 	0
scalar IntersectionExampleScenario.node[17].nic.mac1609_4 	TooLittleTime 	0
scalar IntersectionExampleScenario.node[17].nic.mac1609_4 	TimesIntoBackoff 	0
scalar IntersectionExampleScenario.node[17].nic.mac1609_4 	SlotsBackoff 	0
scalar IntersectionExampleScenario.node[17].nic.mac1609_4 	NumInternalContention 	0
scalar IntersectionExampleScenario.node[17].nic.mac1609_4 	totalBusyTime 	0
scalar IntersectionExampleScenario.node[17].veinsmobility 	startTime 	56.25
scalar IntersectionExampleScenario.node[17].veinsmobility 	totalTime 	90.25
scalar IntersectionExampleScenario.node[17].veinsmobility 	stopTime 	146.75
scalar IntersectionExampleScenario.node[17].veinsmobility 	minSpeed 	0
scalar IntersectionExampleScenario.node[17].veinsmobility 	maxSpeed 	15.64999961853
scalar IntersectionExampleScenario.node[17].veinsmobility 	totalDistance 	576.19714355469
scalar IntersectionExampleScenario.node[17].veinsmobility 	totalCO2Emission 	184.99551620287
scalar IntersectionExampleScenario.node[25].appl 	VehicleRemoved 	0
scalar IntersectionExampleScenario.node[25].appl 	ArrivedAtDest 	1
scalar IntersectionExampleScenario.node[25].appl 	IntersectionEnterTime 	84
scalar IntersectionExampleScenario.node[25].appl 	IntersectionExitTime 	132.75558805061
scalar IntersectionExampleScenario.node[25].appl 	NumberOfCollisions 	0
scalar IntersectionExampleScenario.node[25].nic.phy80211p 	busyTime 	0
scalar IntersectionExampleScenario.node[25].nic.mac1609_4 	ReceivedUnicastPackets 	0
scalar IntersectionExampleScenario.node[25].nic.mac1609_4 	ReceivedBroadcasts 	0
scalar IntersectionExampleScenario.node[25].nic.mac1609_4 	SentPackets 	0
scalar IntersectionExampleScenario.node[25].nic.mac1609_4 	SNIRLostPackets 	0
scalar IntersectionExampleScenario.node[25].nic.mac1609_4 	RXTXLostPackets 	0
scalar IntersectionExampleScenario.node[25].nic.mac1609_4 	TotalLostPackets 	0
scalar IntersectionExampleScenario.node[25].nic.mac1609_4 	DroppedPacketsInMac 	0
scalar IntersectionExampleScenario.node[25].nic.mac1609_4 	TooLittleTime 	0
scalar IntersectionExampleScenario.node[25].nic.mac1609_4 	TimesIntoBackoff 	0
scalar IntersectionExampleScenario.node[25].nic.mac1609_4 	SlotsBackoff 	0
scalar IntersectionExampleScenario.node[25].nic.mac1609_4 	NumInternalContention 	0
scalar IntersectionExampleScenario.node[25].nic.mac1609_4 	totalBusyTime 	0
scalar IntersectionExampleScenario.node[25].veinsmobility 	startTime 	84
scalar IntersectionExampleScenario.node[25].veinsmobility 	totalTime 	65.75
scalar IntersectionExampleScenario.node[25].veinsmobility 	stopTime 	150
scalar IntersectionExampleScenario.node[25].veinsmobility 	minSpeed 	0
scalar IntersectionExampleScenario.node[25].veinsmobility 	maxSpeed 	15.02499961853
scalar IntersectionExampleScenario.node[25].veinsmobility 	totalDistance 	552.11200461025
scalar IntersectionExampleScenario.node[25].veinsmobility 	totalCO2Emission 	153.26073769173
scalar IntersectionExampleScenario.node[30].appl 	VehicleRemoved 	0
scalar IntersectionExampleScenario.node[30].appl 	ArrivedAtDest 	1
scalar IntersectionExampleScenario.node[30].appl 	IntersectionEnterTime 	101.75
scalar IntersectionExampleScenario.node[30].appl 	IntersectionExitTime 	135.03023777626
scalar IntersectionExampleScenario.node[30].appl 	NumberOfCollisions 	0
scalar IntersectionExampleScenario.node[30].nic.phy80211p 	busyTime 	0
scalar IntersectionExampleScenario.node[30].nic.mac1609_4 	ReceivedUnicastPackets 	0
scalar IntersectionExampleScenario.node[30].nic.mac1609_4 	ReceivedBroadcasts 	0
scalar IntersectionExampleScenario.node[30].nic.mac1609_4 	SentPackets 	0
scalar IntersectionExampleScenario.node[30].nic.mac1609_4 	SNIRLostPackets 	0
scalar IntersectionExampleScenario.node[30].nic.mac1609_4 	RXTXLostPackets 	0
scalar IntersectionExampleScenario.node[30].nic.mac1609_4 	TotalLostPackets 	0
scalar IntersectionExampleScenario.node[30].nic.mac1609_4 	DroppedPacketsInMac 	0
scalar IntersectionExampleScenario.node[30].nic.mac1609_4 	TooLittleTime 	0
scalar IntersectionExampleScenario.node[30].nic.mac1609_4 	TimesIntoBackoff 	0
scalar IntersectionExampleScenario.node[30].nic.mac1609_4 	SlotsBackoff 	0
scalar IntersectionExampleScenario.node[30].nic.mac1609_4 	NumInternalContention 	0
scalar IntersectionExampleScenario.node[30].nic.mac1609_4 	totalBusyTime 	0
scalar IntersectionExampleScenario.node[30].veinsmobility 	startTime 	101.75
scalar IntersectionExampleScenario.node[30].veinsmobility 	totalTime 	50
scalar IntersectionExampleScenario.node[30].veinsmobility 	stopTime 	152
scalar IntersectionExampleScenario.node[30].veinsmobility 	minSpeed 	2.4834094047546
scalar IntersectionExampleScenario.node[30].veinsmobility 	maxSpeed 	15.875
scalar IntersectionExampleScenario.node[30].veinsmobility 	totalDistance 	546.89244038184
scalar IntersectionExampleScenario.node[30].veinsmobility 	totalCO2Emission 	147.17081245043
scalar IntersectionExampleScenario.node[34].appl 	VehicleRemoved 	0
scalar IntersectionExampleScenario.node[34].appl 	ArrivedAtDest 	1
scalar IntersectionExampleScenario.node[34].appl 	IntersectionEnterTime 	113.5
scalar IntersectionExampleScenario.node[34].appl 	IntersectionExitTime 	137.2834072939
scalar IntersectionExampleScenario.node[34].appl 	NumberOfCollisions 	0
scalar IntersectionExampleScenario.node[34].nic.phy80211p 	busyTime 	0
scalar IntersectionExampleScenario.node[34].nic.mac1609_4 	ReceivedUnicastPackets 	0
scalar IntersectionExampleScenario.node[34].nic.mac1609_4 	ReceivedBroadcasts 	0
scalar IntersectionExampleScenario.node[34].nic.mac1609_4 	SentPackets 	0
scalar IntersectionExampleScenario.node[34].nic.mac1609_4 	SNIRLostPackets 	0
scalar IntersectionExampleScenario.node[34].nic.mac1609_4 	RXTXLostPackets 	0
scalar IntersectionExampleScenario.node[34].nic.mac1609_4 	TotalLostPackets 	0
scalar IntersectionExampleScenario.node[34].nic.mac1609_4 	DroppedPacketsInMac 	0
scalar IntersectionExampleScenario.node[34].nic.mac1609_4 	TooLittleTime 	0
scalar IntersectionExampleScenario.node[34].nic.mac1609_4 	TimesIntoBackoff 	0
scalar IntersectionExampleScenario.node[34].nic.mac1609_4 	SlotsBackoff 	0
scalar IntersectionExampleScenario.node[34].nic.mac1609_4 	NumInternalContention 	0
scalar IntersectionExampleScenario.node[34].nic.mac1609_4 	totalBusyTime 	0
scalar IntersectionExampleScenario.node[34].veinsmobility 	startTime 	113.5
scalar IntersectionExampleScenario.node[34].veinsmobility 	totalTime 	40.25
scalar IntersectionExampleScenario.node[34].veinsmobility 	stopTime 	154
scalar IntersectionExampleScenario.node[34].veinsmobility 	minSpeed 	5.6500000953674
scalar IntersectionExampleScenario.node[34].veinsmobility 	maxSpeed 	15.092821121216
scalar IntersectionExampleScenario.node[34].veinsmobility 	totalDistance 	551.7533416748
scalar IntersectionExampleScenario.node[34].veinsmobility 	totalCO2Emission 	127.30857893683
scalar IntersectionExampleScenario.node[36].appl 	VehicleRemoved 	0
scalar IntersectionExampleScenario.node[36].appl 	ArrivedAtDest 	1
scalar IntersectionExampleScenario.node[36].appl 	IntersectionEnterTime 	120.25
scalar IntersectionExampleScenario.node[36].appl 	IntersectionExitTime 	142.846851576
scalar IntersectionExampleScenario.node[36].appl 	NumberOfCollisions 	0
scalar IntersectionExampleScenario.node[36].nic.phy80211p 	busyTime 	0
scalar IntersectionExampleScenario.node[36].nic.mac1609_4 	ReceivedUnicastPackets 	0
scalar IntersectionExampleScenario.node[36].nic.mac1609_4 	ReceivedBroadcasts 	0
scalar IntersectionExampleScenario.node[36].nic.mac1609_4 	SentPackets 	0
scalar IntersectionExampleScenario.node[36].nic.mac1609_4 	SNIRLostPackets 	0
scalar IntersectionExampleScenario.node[36].nic.mac1609_4 	RXTXLostPackets 	0
scalar IntersectionExampleScenario.node[36].nic.mac1609_4 	TotalLostPackets 	0
scalar IntersectionExampleScenario.node[36].nic.mac1609_4 	DroppedPacketsInMac 	0
scalar IntersectionExampleScenario.node[36].nic.mac1609_4 	TooLittleTime 	0
scalar IntersectionExampleScenario.node[36].nic.mac1609_4 	TimesIntoBackoff 	0
scalar IntersectionExampleScenario.node[36].nic.mac1609_4 	SlotsBackoff 	0
scalar IntersectionExampleScenario.node[36].nic.mac1609_4 	NumInternalContention 	0
scalar IntersectionExampleScenario.node[36].nic.mac1609_4 	totalBusyTime 	0
scalar IntersectionExampleScenario.node[36].veinsmobility 	startTime 	120.25
scalar IntersectionExampleScenario.node[36].veinsmobility 	totalTime 	38.25
scalar IntersectionExampleScenario.node[36].veinsmobility 	stopTime 	158.75
scalar IntersectionExampleScenario.node[36].veinsmobility 	minSpeed 	5.6500000953674
scalar IntersectionExampleScenario.node[36].veinsmobility 	maxSpeed 	15.912077903748
scalar IntersectionExampleScenario.node[36].veinsmobility 	totalDistance 	554.9992980957
scalar IntersectionExampleScenario.node[36].veinsmobility 	totalCO2Emission 	120.46649539547
scalar IntersectionExampleScenario.node[20].appl 	VehicleRemoved 	0
scalar IntersectionExampleScenario.node[20].appl 	ArrivedAtDest 	1
scalar IntersectionExampleScenario.node[20].appl 	IntersectionEnterTime 	71.25
scalar IntersectionExampleScenario.node[20].appl 	IntersectionExitTime 	153.6248372808
scalar IntersectionExampleScenario.node[20].appl 	NumberOfCollisions 	0
scalar IntersectionExampleScenario.node[20].nic.phy80211p 	busyTime 	0
scalar IntersectionExampleScenario.node[20].nic.mac1609_4 	ReceivedUnicastPackets 	0
scalar IntersectionExampleScenario.node[20].nic.mac1609_4 	ReceivedBroadcasts 	0
scalar IntersectionExampleScenario.node[20].nic.mac1609_4 	SentPackets 	0
scalar IntersectionExampleScenario.node[20].nic.mac1609_4 	SNIRLostPackets 	0
scalar IntersectionExampleScenario.node[20].nic.mac1609_4 	RXTXLostPackets 	0
scalar IntersectionExampleScenario.node[20].nic.mac1609_4 	TotalLostPackets 	0
scalar IntersectionExampleScenario.node[20].nic.mac1609_4 	DroppedPacketsInMac 	0
scalar IntersectionExampleScenario.node[20].nic.mac1609_4 	TooLittleTime 	0
scalar IntersectionExampleScenario.node[20].nic.mac1609_4 	TimesIntoBackoff 	0
scalar IntersectionExampleScenario.node[20].nic.mac1609_4 	SlotsBackoff 	0
scalar IntersectionExampleScenario.node[20].nic.mac1609_4 	NumInternalContention 	0
scalar IntersectionExampleScenario.node[20].nic.mac1609_4 	totalBusyTime 	0
scalar IntersectionExampleScenario.node[20].veinsmobility 	startTime 	71.25
scalar IntersectionExampleScenario.node[20].veinsmobility 	totalTime 	99.5
scalar IntersectionExampleScenario.node[20].veinsmobility 	stopTime 	171
scalar IntersectionExampleScenario.node[20].veinsmobility 	minSpeed 	0
scalar IntersectionExampleScenario.node[20].veinsmobility 	maxSpeed 	15.25
scalar IntersectionExampleScenario.node[20].veinsmobility 	totalDistance 	544.3806448117
scalar IntersectionExampleScenario.node[20].veinsmobility 	totalCO2Emission 	185.91516949431
scalar IntersectionExampleScenario.node[26].appl 	VehicleRemoved 	0
scalar IntersectionExampleScenario.node[26].appl 	ArrivedAtDest 	1
scalar IntersectionExampleScenario.node[26].appl 	IntersectionEnterTime 	89.25
scalar IntersectionExampleScenario.node[26].appl 	IntersectionExitTime 	156.11769428095
scalar IntersectionExampleScenario.node[26].appl 	NumberOfCollisions 	0
scalar IntersectionExampleScenario.node[26].nic.phy80211p 	busyTime 	0
scalar IntersectionExampleScenario.node[26].nic.mac1609_4 	ReceivedUnicastPackets 	0
scalar IntersectionExampleScenario.node[26].nic.mac1609_4 	ReceivedBroadcasts 	0
scalar IntersectionExampleScenario.node[26].nic.mac1609_4 	SentPackets 	0
scalar IntersectionExampleScenario.node[26].nic.mac1609_4 	SNIRLostPackets 	0
scalar IntersectionExampleScenario.node[26].nic.mac1609_4 	RXTXLostPackets 	0
scalar IntersectionExampleScenario.node[26].nic.mac1609_4 	TotalLostPackets 	0
scalar IntersectionExampleScenario.node[26].nic.mac1609_4 	DroppedPacketsInMac 	0
scalar IntersectionExampleScenario.node[26].nic.mac1609_4 	TooLittleTime 	0
scalar IntersectionExampleScenario.node[26].nic.mac1609_4 	TimesIntoBackoff 	0
scalar IntersectionExampleScenario.node[26].nic.mac1609_4 	SlotsBackoff 	0
scalar IntersectionExampleScenario.node[26].nic.mac1609_4 	NumInternalContention 	0
scalar IntersectionExampleScenario.node[26].nic.mac1609_4 	totalBusyTime 	0
scalar IntersectionExampleScenario.node[26].veinsmobility 	startTime 	89.25
scalar IntersectionExampleScenario.node[26].veinsmobility 	totalTime 	83.25
scalar IntersectionExampleScenario.node[26].veinsmobility 	stopTime 	172.75
scalar IntersectionExampleScenario.node[26].veinsmobility 	minSpeed 	0
scalar IntersectionExampleScenario.node[26].veinsmobility 	maxSpeed 	15.64999961853
scalar IntersectionExampleScenario.node[26].veinsmobility 	totalDistance 	546.08826463521
scalar IntersectionExampleScenario.node[26].veinsmobility 	totalCO2Emission 	175.83804160624
scalar IntersectionExampleScenario.node[29].appl 	VehicleRemoved 	0
scalar IntersectionExampleScenario.node[29].appl 	ArrivedAtDest 	1
scalar IntersectionExampleScenario.node[29].appl 	IntersectionEnterTime 	99.5
scalar IntersectionExampleScenario.node[29].appl 	IntersectionExitTime 	158.56058581083
scalar IntersectionExampleScenario.node[29].appl 	NumberOfCollisions 	0
scalar IntersectionExampleScenario.node[29].nic.phy80211p 	busyTime 	0
scalar IntersectionExampleScenario.node[29].nic.mac1609_4 	ReceivedUnicastPackets 	0
scalar IntersectionExampleScenario.node[29].nic.mac1609_4 	ReceivedBroadcasts 	0
scalar IntersectionExampleScenario.node[29].nic.mac1609_4 	SentPackets 	0
scalar IntersectionExampleScenario.node[29].nic.mac1609_4 	SNIRLostPackets 	0
scalar IntersectionExampleScenario.node[29].nic.mac1609_4 	RXTXLostPackets 	0
scalar IntersectionExampleScenario.node[29].nic.mac1609_4 	TotalLostPackets 	0
scalar IntersectionExampleScenario.node[29].nic.mac1609_4 	DroppedPacketsInMac 	0
scalar IntersectionExampleScenario.node[29].nic.mac1609_4 	TooLittleTime 	0
scalar IntersectionExampleScenario.node[29].nic.mac1609_4 	TimesIntoBackoff 	0
scalar IntersectionExampleScenario.node[29].nic.mac1609_4 	SlotsBackoff 	0
scalar IntersectionExampleScenario.node[29].nic.mac1609_4 	NumInternalContention 	0
scalar IntersectionExampleScenario.node[29].nic.mac1609_4 	totalBusyTime 	0
scalar IntersectionExampleScenario.node[29].veinsmobility 	startTime 	99.5
scalar IntersectionExampleScenario.node[29].veinsmobility 	totalTime 	75.5
scalar IntersectionExampleScenario.node[29].veinsmobility 	stopTime 	175.25
scalar IntersectionExampleScenario.node[29].veinsmobility 	minSpeed 	0
scalar IntersectionExampleScenario.node[29].veinsmobility 	maxSpeed 	15.375
scalar IntersectionExampleScenario.node[29].veinsmobility 	totalDistance 	551.12334063724
scalar IntersectionExampleScenario.node[29].veinsmobility 	totalCO2Emission 	163.33338943528
scalar IntersectionExampleScenario.node[33].appl 	VehicleRemoved 	0
scalar IntersectionExampleScenario.node[33].appl 	ArrivedAtDest 	1
scalar IntersectionExampleScenario.node[33].appl 	IntersectionEnterTime 	111.5
scalar IntersectionExampleScenario.node[33].appl 	IntersectionExitTime 	160.03674543381
scalar IntersectionExampleScenario.node[33].appl 	NumberOfCollisions 	0
scalar IntersectionExampleScenario.node[33].nic.phy80211p 	busyTime 	0
scalar IntersectionExampleScenario.node[33].nic.mac1609_4 	ReceivedUnicastPackets 	0
scalar IntersectionExampleScenario.node[33].nic.mac1609_4 	ReceivedBroadcasts 	0
scalar IntersectionExampleScenario.node[33].nic.mac1609_4 	SentPackets 	0
scalar IntersectionExampleScenario.node[33].nic.mac1609_4 	SNIRLostPackets 	0
scalar IntersectionExampleScenario.node[33].nic.mac1609_4 	RXTXLostPackets 	0
scalar IntersectionExampleScenario.node[33].nic.mac1609_4 	TotalLostPackets 	0
scalar IntersectionExampleScenario.node[33].nic.mac1609_4 	DroppedPacketsInMac 	0
scalar IntersectionExampleScenario.node[33].nic.mac1609_4 	TooLittleTime 	0
scalar IntersectionExampleScenario.node[33].nic.mac1609_4 	TimesIntoBackoff 	0
scalar IntersectionExampleScenario.node[33].nic.mac1609_4 	SlotsBackoff 	0
scalar IntersectionExampleScenario.node[33].nic.mac1609_4 	NumInternalContention 	0
scalar IntersectionExampleScenario.node[33].nic.mac1609_4 	totalBusyTime 	0
scalar IntersectionExampleScenario.node[33].veinsmobility 	startTime 	111.5
scalar IntersectionExampleScenario.node[33].veinsmobility 	totalTime 	63.75
scalar IntersectionExampleScenario.node[33].veinsmobility 	stopTime 	175.5
scalar IntersectionExampleScenario.node[33].veinsmobility 	minSpeed 	0
scalar IntersectionExampleScenario.node[33].veinsmobility 	maxSpeed 	16.27499961853
scalar IntersectionExampleScenario.node[33].veinsmobility 	totalDistance 	552.44632720947
scalar IntersectionExampleScenario.node[33].veinsmobility 	totalCO2Emission 	159.91030200088
scalar IntersectionExampleScenario.node[39].appl 	VehicleRemoved 	0
scalar IntersectionExampleScenario.node[39].appl 	ArrivedAtDest 	1
scalar IntersectionExampleScenario.node[39].appl 	IntersectionEnterTime 	135.75
scalar IntersectionExampleScenario.node[39].appl 	IntersectionExitTime 	162.59039116226
scalar IntersectionExampleScenario.node[39].appl 	NumberOfCollisions 	0
scalar IntersectionExampleScenario.node[39].nic.phy80211p 	busyTime 	0
scalar IntersectionExampleScenario.node[39].nic.mac1609_4 	ReceivedUnicastPackets 	0
scalar IntersectionExampleScenario.node[39].nic.mac1609_4 	ReceivedBroadcasts 	0
scalar IntersectionExampleScenario.node[39].nic.mac1609_4 	SentPackets 	0
scalar IntersectionExampleScenario.node[39].nic.mac1609_4 	SNIRLostPackets 	0
scalar IntersectionExampleScenario.node[39].nic.mac1609_4 	RXTXLostPackets 	0
scalar IntersectionExampleScenario.node[39].nic.mac1609_4 	TotalLostPackets 	0
scalar IntersectionExampleScenario.node[39].nic.mac1609_4 	DroppedPacketsInMac 	0
scalar IntersectionExampleScenario.node[39].nic.mac1609_4 	TooLittleTime 	0
scalar IntersectionExampleScenario.node[39].nic.mac1609_4 	TimesIntoBackoff 	0
scalar IntersectionExampleScenario.node[39].nic.mac1609_4 	SlotsBackoff 	0
scalar IntersectionExampleScenario.node[39].nic.mac1609_4 	NumInternalContention 	0
scalar IntersectionExampleScenario.node[39].nic.mac1609_4 	totalBusyTime 	0
scalar IntersectionExampleScenario.node[39].veinsmobility 	startTime 	135.75
scalar IntersectionExampleScenario.node[39].veinsmobility 	totalTime 	43.25
scalar IntersectionExampleScenario.node[39].veinsmobility 	stopTime 	179.25
scalar IntersectionExampleScenario.node[39].veinsmobility 	minSpeed 	5.6500000953674
scalar IntersectionExampleScenario.node[39].veinsmobility 	maxSpeed 	15.875
scalar IntersectionExampleScenario.node[39].veinsmobility 	totalDistance 	543.38662256739
scalar IntersectionExampleScenario.node[39].veinsmobility 	totalCO2Emission 	140.02784529105
scalar IntersectionExampleScenario.node[43].appl 	VehicleRemoved 	0
scalar IntersectionExampleScenario.node[43].appl 	ArrivedAtDest 	1
scalar IntersectionExampleScenario.node[43].appl 	IntersectionEnterTime 	144.75
scalar IntersectionExampleScenario.node[43].appl 	IntersectionExitTime 	166.87483981685
scalar IntersectionExampleScenario.node[43].appl 	NumberOfCollisions 	0
scalar IntersectionExampleScenario.node[43].nic.phy80211p 	busyTime 	0
scalar IntersectionExampleScenario.node[43].nic.mac1609_4 	ReceivedUnicastPackets 	0
scalar IntersectionExampleScenario.node[43].nic.mac1609_4 	ReceivedBroadcasts 	0
scalar IntersectionExampleScenario.node[43].nic.mac1609_4 	SentPackets 	0
scalar IntersectionExampleScenario.node[43].nic.mac1609_4 	SNIRLostPackets 	0
scalar IntersectionExampleScenario.node[43].nic.mac1609_4 	RXTXLostPackets 	0
scalar IntersectionExampleScenario.node[43].nic.mac1609_4 	TotalLostPackets 	0
scalar IntersectionExampleScenario.node[43].nic.mac1609_4 	DroppedPacketsInMac 	0
scalar IntersectionExampleScenario.node[43].nic.mac1609_4 	TooLittleTime 	0
scalar IntersectionExampleScenario.node[43].nic.mac1609_4 	TimesIntoBackoff 	0
scalar IntersectionExampleScenario.node[43].nic.mac1609_4 	SlotsBackoff 	0
scalar IntersectionExampleScenario.node[43].nic.mac1609_4 	NumInternalContention 	0
scalar IntersectionExampleScenario.node[43].nic.mac1609_4 	totalBusyTime 	0
scalar IntersectionExampleScenario.node[43].veinsmobility 	startTime 	144.75
scalar IntersectionExampleScenario.node[43].veinsmobility 	totalTime 	39.5
scalar IntersectionExampleScenario.node[43].veinsmobility 	stopTime 	184.5
scalar IntersectionExampleScenario.node[43].veinsmobility 	minSpeed 	5.6500000953674
scalar IntersectionExampleScenario.node[43].veinsmobility 	maxSpeed 	15.02499961853
scalar IntersectionExampleScenario.node[43].veinsmobility 	totalDistance 	514.40367218281
scalar IntersectionExampleScenario.node[43].veinsmobility 	totalCO2Emission 	118.56439806699
scalar IntersectionExampleScenario.node[40].appl 	VehicleRemoved 	0
scalar IntersectionExampleScenario.node[40].appl 	ArrivedAtDest 	1
scalar IntersectionExampleScenario.node[40].appl 	IntersectionEnterTime 	142.75
scalar IntersectionExampleScenario.node[40].appl 	IntersectionExitTime 	169.27075877206
scalar IntersectionExampleScenario.node[40].appl 	NumberOfCollisions 	0
scalar IntersectionExampleScenario.node[40].nic.phy80211p 	busyTime 	0
scalar IntersectionExampleScenario.node[40].nic.mac1609_4 	ReceivedUnicastPackets 	0
scalar IntersectionExampleScenario.node[40].nic.mac1609_4 	ReceivedBroadcasts 	0
scalar IntersectionExampleScenario.node[40].nic.mac1609_4 	SentPackets 	0
scalar IntersectionExampleScenario.node[40].nic.mac1609_4 	SNIRLostPackets 	0
scalar IntersectionExampleScenario.node[40].nic.mac1609_4 	RXTXLostPackets 	0
scalar IntersectionExampleScenario.node[40].nic.mac1609_4 	TotalLostPackets 	0
scalar IntersectionExampleScenario.node[40].nic.mac1609_4 	DroppedPacketsInMac 	0
scalar IntersectionExampleScenario.node[40].nic.mac1609_4 	TooLittleTime 	0
scalar IntersectionExampleScenario.node[40].nic.mac1609_4 	TimesIntoBackoff 	0
scalar IntersectionExampleScenario.node[40].nic.mac1609_4 	SlotsBackoff 	0
scalar IntersectionExampleScenario.node[40].nic.mac1609_4 	NumInternalContention 	0
scalar IntersectionExampleScenario.node[40].nic.mac1609_4 	totalBusyTime 	0
scalar IntersectionExampleScenario.node[40].veinsmobility 	startTime 	142.75
scalar IntersectionExampleScenario.node[40].veinsmobility 	totalTime 	43.25
scalar IntersectionExampleScenario.node[40].veinsmobility 	stopTime 	186.25
scalar IntersectionExampleScenario.node[40].veinsmobility 	minSpeed 	5.6500000953674
scalar IntersectionExampleScenario.node[40].veinsmobility 	maxSpeed 	14.997190475464
scalar IntersectionExampleScenario.node[40].veinsmobility 	totalDistance 	543.86832247019
scalar IntersectionExampleScenario.node[40].veinsmobility 	totalCO2Emission 	131.92123101862
scalar IntersectionExampleScenario.node[41].appl 	VehicleRemoved 	0
scalar IntersectionExampleScenario.node[41].appl 	ArrivedAtDest 	1
scalar IntersectionExampleScenario.node[41].appl 	IntersectionEnterTime 	144.25
scalar IntersectionExampleScenario.node[41].appl 	IntersectionExitTime 	171.3067452643
scalar IntersectionExampleScenario.node[41].appl 	NumberOfCollisions 	0
scalar IntersectionExampleScenario.node[41].nic.phy80211p 	busyTime 	0
scalar IntersectionExampleScenario.node[41].nic.mac1609_4 	ReceivedUnicastPackets 	0
scalar IntersectionExampleScenario.node[41].nic.mac1609_4 	ReceivedBroadcasts 	0
scalar IntersectionExampleScenario.node[41].nic.mac1609_4 	SentPackets 	0
scalar IntersectionExampleScenario.node[41].nic.mac1609_4 	SNIRLostPackets 	0
scalar IntersectionExampleScenario.node[41].nic.mac1609_4 	RXTXLostPackets 	0
scalar IntersectionExampleScenario.node[41].nic.mac1609_4 	TotalLostPackets 	0
scalar IntersectionExampleScenario.node[41].nic.mac1609_4 	DroppedPacketsInMac 	0
scalar IntersectionExampleScenario.node[41].nic.mac1609_4 	TooLittleTime 	0
scalar IntersectionExampleScenario.node[41].nic.mac1609_4 	TimesIntoBackoff 	0
scalar IntersectionExampleScenario.node[41].nic.mac1609_4 	SlotsBackoff 	0
scalar IntersectionExampleScenario.node[41].nic.mac1609_4 	NumInternalContention 	0
scalar IntersectionExampleScenario.node[41].nic.mac1609_4 	totalBusyTime 	0
scalar IntersectionExampleScenario.node[41].veinsmobility 	startTime 	144.25
scalar IntersectionExampleScenario.node[41].veinsmobility 	totalTime 	44
scalar IntersectionExampleScenario.node[41].veinsmobility 	stopTime 	188.5
scalar IntersectionExampleScenario.node[41].veinsmobility 	minSpeed 	5.6500000953674
scalar IntersectionExampleScenario.node[41].veinsmobility 	maxSpeed 	15.144116401672
scalar IntersectionExampleScenario.node[41].veinsmobility 	totalDistance 	566.72211171176
scalar IntersectionExampleScenario.node[41].veinsmobility 	totalCO2Emission 	128.49584926953
scalar IntersectionExampleScenario.node[31].appl 	VehicleRemoved 	0
scalar IntersectionExampleScenario.node[31].appl 	ArrivedAtDest 	1
scalar IntersectionExampleScenario.node[31].appl 	IntersectionEnterTime 	108.5
scalar IntersectionExampleScenario.node[31].appl 	IntersectionExitTime 	176.31090572194
scalar IntersectionExampleScenario.node[31].appl 	NumberOfCollisions 	0
scalar IntersectionExampleScenario.node[31].nic.phy80211p 	busyTime 	0
scalar IntersectionExampleScenario.node[31].nic.mac1609_4 	ReceivedUnicastPackets 	0
scalar IntersectionExampleScenario.node[31].nic.mac1609_4 	ReceivedBroadcasts 	0
scalar IntersectionExampleScenario.node[31].nic.mac1609_4 	SentPackets 	0
scalar IntersectionExampleScenario.node[31].nic.mac1609_4 	SNIRLostPackets 	0
scalar IntersectionExampleScenario.node[31].nic.mac1609_4 	RXTXLostPackets 	0
scalar IntersectionExampleScenario.node[31].nic.mac1609_4 	TotalLostPackets 	0
scalar IntersectionExampleScenario.node[31].nic.mac1609_4 	DroppedPacketsInMac 	0
scalar IntersectionExampleScenario.node[31].nic.mac1609_4 	TooLittleTime 	0
scalar IntersectionExampleScenario.node[31].nic.mac1609_4 	TimesIntoBackoff 	0
scalar IntersectionExampleScenario.node[31].nic.mac1609_4 	SlotsBackoff 	0
scalar IntersectionExampleScenario.node[31].nic.mac1609_4 	NumInternalContention 	0
scalar IntersectionExampleScenario.node[31].nic.mac1609_4 	totalBusyTime 	0
scalar IntersectionExampleScenario.node[31].veinsmobility 	startTime 	108.5
scalar IntersectionExampleScenario.node[31].veinsmobility 	totalTime 	83.25
scalar IntersectionExampleScenario.node[31].veinsmobility 	stopTime 	192
scalar IntersectionExampleScenario.node[31].veinsmobility 	minSpeed 	0
scalar IntersectionExampleScenario.node[31].veinsmobility 	maxSpeed 	16.27499961853
scalar IntersectionExampleScenario.node[31].veinsmobility 	totalDistance 	554.66452026367
scalar IntersectionExampleScenario.node[31].veinsmobility 	totalCO2Emission 	180.60424617435
scalar IntersectionExampleScenario.node[32].appl 	VehicleRemoved 	0
scalar IntersectionExampleScenario.node[32].appl 	ArrivedAtDest 	1
scalar IntersectionExampleScenario.node[32].appl 	IntersectionEnterTime 	111.5
scalar IntersectionExampleScenario.node[32].appl 	IntersectionExitTime 	176.37221219781
scalar IntersectionExampleScenario.node[32].appl 	NumberOfCollisions 	0
scalar IntersectionExampleScenario.node[32].nic.phy80211p 	busyTime 	0
scalar IntersectionExampleScenario.node[32].nic.mac1609_4 	ReceivedUnicastPackets 	0
scalar IntersectionExampleScenario.node[32].nic.mac1609_4 	ReceivedBroadcasts 	0
scalar IntersectionExampleScenario.node[32].nic.mac1609_4 	SentPackets 	0
scalar IntersectionExampleScenario.node[32].nic.mac1609_4 	SNIRLostPackets 	0
scalar IntersectionExampleScenario.node[32].nic.mac1609_4 	RXTXLostPackets 	0
scalar IntersectionExampleScenario.node[32].nic.mac1609_4 	TotalLostPackets 	0
scalar IntersectionExampleScenario.node[32].nic.mac1609_4 	DroppedPacketsInMac 	0
scalar IntersectionExampleScenario.node[32].nic.mac1609_4 	TooLittleTime 	0
[...]
scalar IntersectionExampleScenario.node[613].veinsmobility 	totalCO2Emission 	65.786572913094
scalar IntersectionExampleScenario.node[614].appl 	VehicleRemoved 	0
scalar IntersectionExampleScenario.node[614].appl 	ArrivedAtDest 	0
scalar IntersectionExampleScenario.node[614].appl 	IntersectionEnterTime 	1780.5
scalar IntersectionExampleScenario.node[614].appl 	IntersectionExitTime 	-1
scalar IntersectionExampleScenario.node[614].appl 	NumberOfCollisions 	0
scalar IntersectionExampleScenario.node[614].nic.phy80211p 	busyTime 	0
scalar IntersectionExampleScenario.node[614].nic.mac1609_4 	ReceivedUnicastPackets 	0
scalar IntersectionExampleScenario.node[614].nic.mac1609_4 	ReceivedBroadcasts 	0
scalar IntersectionExampleScenario.node[614].nic.mac1609_4 	SentPackets 	0
scalar IntersectionExampleScenario.node[614].nic.mac1609_4 	SNIRLostPackets 	0
scalar IntersectionExampleScenario.node[614].nic.mac1609_4 	RXTXLostPackets 	0
scalar IntersectionExampleScenario.node[614].nic.mac1609_4 	TotalLostPackets 	0
scalar IntersectionExampleScenario.node[614].nic.mac1609_4 	DroppedPacketsInMac 	0
scalar IntersectionExampleScenario.node[614].nic.mac1609_4 	TooLittleTime 	0
scalar IntersectionExampleScenario.node[614].nic.mac1609_4 	TimesIntoBackoff 	0
scalar IntersectionExampleScenario.node[614].nic.mac1609_4 	SlotsBackoff 	0
scalar IntersectionExampleScenario.node[614].nic.mac1609_4 	NumInternalContention 	0
scalar IntersectionExampleScenario.node[614].nic.mac1609_4 	totalBusyTime 	0
scalar IntersectionExampleScenario.node[614].veinsmobility 	startTime 	1780.5
scalar IntersectionExampleScenario.node[614].veinsmobility 	totalTime 	19.5
scalar IntersectionExampleScenario.node[614].veinsmobility 	stopTime 	1800
scalar IntersectionExampleScenario.node[614].veinsmobility 	minSpeed 	5.6500000953674
scalar IntersectionExampleScenario.node[614].veinsmobility 	maxSpeed 	15.02499961853
scalar IntersectionExampleScenario.node[614].veinsmobility 	totalDistance 	236.44956207275
scalar IntersectionExampleScenario.node[614].veinsmobility 	totalCO2Emission 	53.296419184389
scalar IntersectionExampleScenario.node[615].appl 	VehicleRemoved 	0
scalar IntersectionExampleScenario.node[615].appl 	ArrivedAtDest 	0
scalar IntersectionExampleScenario.node[615].appl 	IntersectionEnterTime 	1780.75
scalar IntersectionExampleScenario.node[615].appl 	IntersectionExitTime 	-1
scalar IntersectionExampleScenario.node[615].appl 	NumberOfCollisions 	0
scalar IntersectionExampleScenario.node[615].nic.phy80211p 	busyTime 	0
scalar IntersectionExampleScenario.node[615].nic.mac1609_4 	ReceivedUnicastPackets 	0
scalar IntersectionExampleScenario.node[615].nic.mac1609_4 	ReceivedBroadcasts 	0
scalar IntersectionExampleScenario.node[615].nic.mac1609_4 	SentPackets 	0
scalar IntersectionExampleScenario.node[615].nic.mac1609_4 	SNIRLostPackets 	0
scalar IntersectionExampleScenario.node[615].nic.mac1609_4 	RXTXLostPackets 	0
scalar IntersectionExampleScenario.node[615].nic.mac1609_4 	TotalLostPackets 	0
scalar IntersectionExampleScenario.node[615].nic.mac1609_4 	DroppedPacketsInMac 	0
scalar IntersectionExampleScenario.node[615].nic.mac1609_4 	TooLittleTime 	0
scalar IntersectionExampleScenario.node[615].nic.mac1609_4 	TimesIntoBackoff 	0
scalar IntersectionExampleScenario.node[615].nic.mac1609_4 	SlotsBackoff 	0
scalar IntersectionExampleScenario.node[615].nic.mac1609_4 	NumInternalContention 	0
scalar IntersectionExampleScenario.node[615].nic.mac1609_4 	totalBusyTime 	0
scalar IntersectionExampleScenario.node[615].veinsmobility 	startTime 	1780.75
scalar IntersectionExampleScenario.node[615].veinsmobility 	totalTime 	19.25
scalar IntersectionExampleScenario.node[615].veinsmobility 	stopTime 	1800
scalar IntersectionExampleScenario.node[615].veinsmobility 	minSpeed 	5.6500000953674
scalar IntersectionExampleScenario.node[615].veinsmobility 	maxSpeed 	15.722982406616
scalar IntersectionExampleScenario.node[615].veinsmobility 	totalDistance 	238.05072021484
scalar IntersectionExampleScenario.node[615].veinsmobility 	totalCO2Emission 	59.450266482423
scalar IntersectionExampleScenario.node[616].appl 	VehicleRemoved 	0
scalar IntersectionExampleScenario.node[616].appl 	ArrivedAtDest 	0
scalar IntersectionExampleScenario.node[616].appl 	IntersectionEnterTime 	1785.25
scalar IntersectionExampleScenario.node[616].appl 	IntersectionExitTime 	-1
scalar IntersectionExampleScenario.node[616].appl 	NumberOfCollisions 	0
scalar IntersectionExampleScenario.node[616].nic.phy80211p 	busyTime 	0
scalar IntersectionExampleScenario.node[616].nic.mac1609_4 	ReceivedUnicastPackets 	0
scalar IntersectionExampleScenario.node[616].nic.mac1609_4 	ReceivedBroadcasts 	0
scalar IntersectionExampleScenario.node[616].nic.mac1609_4 	SentPackets 	0
scalar IntersectionExampleScenario.node[616].nic.mac1609_4 	SNIRLostPackets 	0
scalar IntersectionExampleScenario.node[616].nic.mac1609_4 	RXTXLostPackets 	0
scalar IntersectionExampleScenario.node[616].nic.mac1609_4 	TotalLostPackets 	0
scalar IntersectionExampleScenario.node[616].nic.mac1609_4 	DroppedPacketsInMac 	0
scalar IntersectionExampleScenario.node[616].nic.mac1609_4 	TooLittleTime 	0
scalar IntersectionExampleScenario.node[616].nic.mac1609_4 	TimesIntoBackoff 	0
scalar IntersectionExampleScenario.node[616].nic.mac1609_4 	SlotsBackoff 	0
scalar IntersectionExampleScenario.node[616].nic.mac1609_4 	NumInternalContention 	0
scalar IntersectionExampleScenario.node[616].nic.mac1609_4 	totalBusyTime 	0
scalar IntersectionExampleScenario.node[616].veinsmobility 	startTime 	1785.25
scalar IntersectionExampleScenario.node[616].veinsmobility 	totalTime 	14.75
scalar IntersectionExampleScenario.node[616].veinsmobility 	stopTime 	1800
scalar IntersectionExampleScenario.node[616].veinsmobility 	minSpeed 	5.6500000953674
scalar IntersectionExampleScenario.node[616].veinsmobility 	maxSpeed 	15.02499961853
scalar IntersectionExampleScenario.node[616].veinsmobility 	totalDistance 	199.03827667236
scalar IntersectionExampleScenario.node[616].veinsmobility 	totalCO2Emission 	50.338177911003
scalar IntersectionExampleScenario.node[617].appl 	VehicleRemoved 	0
scalar IntersectionExampleScenario.node[617].appl 	ArrivedAtDest 	0
scalar IntersectionExampleScenario.node[617].appl 	IntersectionEnterTime 	1786.75
scalar IntersectionExampleScenario.node[617].appl 	IntersectionExitTime 	-1
scalar IntersectionExampleScenario.node[617].appl 	NumberOfCollisions 	0
scalar IntersectionExampleScenario.node[617].nic.phy80211p 	busyTime 	0
scalar IntersectionExampleScenario.node[617].nic.mac1609_4 	ReceivedUnicastPackets 	0
scalar IntersectionExampleScenario.node[617].nic.mac1609_4 	ReceivedBroadcasts 	0
scalar IntersectionExampleScenario.node[617].nic.mac1609_4 	SentPackets 	0
scalar IntersectionExampleScenario.node[617].nic.mac1609_4 	SNIRLostPackets 	0
scalar IntersectionExampleScenario.node[617].nic.mac1609_4 	RXTXLostPackets 	0
scalar IntersectionExampleScenario.node[617].nic.mac1609_4 	TotalLostPackets 	0
scalar IntersectionExampleScenario.node[617].nic.mac1609_4 	DroppedPacketsInMac 	0
scalar IntersectionExampleScenario.node[617].nic.mac1609_4 	TooLittleTime 	0
scalar IntersectionExampleScenario.node[617].nic.mac1609_4 	TimesIntoBackoff 	0
scalar IntersectionExampleScenario.node[617].nic.mac1609_4 	SlotsBackoff 	0
scalar IntersectionExampleScenario.node[617].nic.mac1609_4 	NumInternalContention 	0
scalar IntersectionExampleScenario.node[617].nic.mac1609_4 	totalBusyTime 	0
scalar IntersectionExampleScenario.node[617].veinsmobility 	startTime 	1786.75
scalar IntersectionExampleScenario.node[617].veinsmobility 	totalTime 	13.25
scalar IntersectionExampleScenario.node[617].veinsmobility 	stopTime 	1800
scalar IntersectionExampleScenario.node[617].veinsmobility 	minSpeed 	5.6500000953674
scalar IntersectionExampleScenario.node[617].veinsmobility 	maxSpeed 	16.419544219971
scalar IntersectionExampleScenario.node[617].veinsmobility 	totalDistance 	188.17581176758
scalar IntersectionExampleScenario.node[617].veinsmobility 	totalCO2Emission 	52.348774413351
scalar IntersectionExampleScenario.node[618].appl 	VehicleRemoved 	0
scalar IntersectionExampleScenario.node[618].appl 	ArrivedAtDest 	0
scalar IntersectionExampleScenario.node[618].appl 	IntersectionEnterTime 	1790
scalar IntersectionExampleScenario.node[618].appl 	IntersectionExitTime 	-1
scalar IntersectionExampleScenario.node[618].appl 	NumberOfCollisions 	0
scalar IntersectionExampleScenario.node[618].nic.phy80211p 	busyTime 	0
scalar IntersectionExampleScenario.node[618].nic.mac1609_4 	ReceivedUnicastPackets 	0
scalar IntersectionExampleScenario.node[618].nic.mac1609_4 	ReceivedBroadcasts 	0
scalar IntersectionExampleScenario.node[618].nic.mac1609_4 	SentPackets 	0
scalar IntersectionExampleScenario.node[618].nic.mac1609_4 	SNIRLostPackets 	0
scalar IntersectionExampleScenario.node[618].nic.mac1609_4 	RXTXLostPackets 	0
scalar IntersectionExampleScenario.node[618].nic.mac1609_4 	TotalLostPackets 	0
scalar IntersectionExampleScenario.node[618].nic.mac1609_4 	DroppedPacketsInMac 	0
scalar IntersectionExampleScenario.node[618].nic.mac1609_4 	TooLittleTime 	0
scalar IntersectionExampleScenario.node[618].nic.mac1609_4 	TimesIntoBackoff 	0
scalar IntersectionExampleScenario.node[618].nic.mac1609_4 	SlotsBackoff 	0
scalar IntersectionExampleScenario.node[618].nic.mac1609_4 	NumInternalContention 	0
scalar IntersectionExampleScenario.node[618].nic.mac1609_4 	totalBusyTime 	0
scalar IntersectionExampleScenario.node[618].veinsmobility 	startTime 	1790
scalar IntersectionExampleScenario.node[618].veinsmobility 	totalTime 	10
scalar IntersectionExampleScenario.node[618].veinsmobility 	stopTime 	1800
scalar IntersectionExampleScenario.node[618].veinsmobility 	minSpeed 	5.6500000953674
scalar IntersectionExampleScenario.node[618].veinsmobility 	maxSpeed 	15.64999961853
scalar IntersectionExampleScenario.node[618].veinsmobility 	totalDistance 	132.07995605469
scalar IntersectionExampleScenario.node[618].veinsmobility 	totalCO2Emission 	44.765829239095
scalar IntersectionExampleScenario.node[619].appl 	VehicleRemoved 	0
scalar IntersectionExampleScenario.node[619].appl 	ArrivedAtDest 	0
scalar IntersectionExampleScenario.node[619].appl 	IntersectionEnterTime 	1794.75
scalar IntersectionExampleScenario.node[619].appl 	IntersectionExitTime 	-1
scalar IntersectionExampleScenario.node[619].appl 	NumberOfCollisions 	0
scalar IntersectionExampleScenario.node[619].nic.phy80211p 	busyTime 	0
scalar IntersectionExampleScenario.node[619].nic.mac1609_4 	ReceivedUnicastPackets 	0
scalar IntersectionExampleScenario.node[619].nic.mac1609_4 	ReceivedBroadcasts 	0
scalar IntersectionExampleScenario.node[619].nic.mac1609_4 	SentPackets 	0
scalar IntersectionExampleScenario.node[619].nic.mac1609_4 	SNIRLostPackets 	0
scalar IntersectionExampleScenario.node[619].nic.mac1609_4 	RXTXLostPackets 	0
scalar IntersectionExampleScenario.node[619].nic.mac1609_4 	TotalLostPackets 	0
scalar IntersectionExampleScenario.node[619].nic.mac1609_4 	DroppedPacketsInMac 	0
scalar IntersectionExampleScenario.node[619].nic.mac1609_4 	TooLittleTime 	0
scalar IntersectionExampleScenario.node[619].nic.mac1609_4 	TimesIntoBackoff 	0
scalar IntersectionExampleScenario.node[619].nic.mac1609_4 	SlotsBackoff 	0
scalar IntersectionExampleScenario.node[619].nic.mac1609_4 	NumInternalContention 	0
scalar IntersectionExampleScenario.node[619].nic.mac1609_4 	totalBusyTime 	0
scalar IntersectionExampleScenario.node[619].veinsmobility 	startTime 	1794.75
scalar IntersectionExampleScenario.node[619].veinsmobility 	totalTime 	5.25
scalar IntersectionExampleScenario.node[619].veinsmobility 	stopTime 	1800
scalar IntersectionExampleScenario.node[619].veinsmobility 	minSpeed 	5.6500000953674
scalar IntersectionExampleScenario.node[619].veinsmobility 	maxSpeed 	15.64999961853
scalar IntersectionExampleScenario.node[619].veinsmobility 	totalDistance 	59.407875061035
scalar IntersectionExampleScenario.node[619].veinsmobility 	totalCO2Emission 	34.851103890037
scalar IntersectionExampleScenario.node[620].appl 	VehicleRemoved 	0
scalar IntersectionExampleScenario.node[620].appl 	ArrivedAtDest 	0
scalar IntersectionExampleScenario.node[620].appl 	IntersectionEnterTime 	1795.75
scalar IntersectionExampleScenario.node[620].appl 	IntersectionExitTime 	-1
scalar IntersectionExampleScenario.node[620].appl 	NumberOfCollisions 	0
scalar IntersectionExampleScenario.node[620].nic.phy80211p 	busyTime 	0
scalar IntersectionExampleScenario.node[620].nic.mac1609_4 	ReceivedUnicastPackets 	0
scalar IntersectionExampleScenario.node[620].nic.mac1609_4 	ReceivedBroadcasts 	0
scalar IntersectionExampleScenario.node[620].nic.mac1609_4 	SentPackets 	0
scalar IntersectionExampleScenario.node[620].nic.mac1609_4 	SNIRLostPackets 	0
scalar IntersectionExampleScenario.node[620].nic.mac1609_4 	RXTXLostPackets 	0
scalar IntersectionExampleScenario.node[620].nic.mac1609_4 	TotalLostPackets 	0
scalar IntersectionExampleScenario.node[620].nic.mac1609_4 	DroppedPacketsInMac 	0
scalar IntersectionExampleScenario.node[620].nic.mac1609_4 	TooLittleTime 	0
scalar IntersectionExampleScenario.node[620].nic.mac1609_4 	TimesIntoBackoff 	0
scalar IntersectionExampleScenario.node[620].nic.mac1609_4 	SlotsBackoff 	0
scalar IntersectionExampleScenario.node[620].nic.mac1609_4 	NumInternalContention 	0
scalar IntersectionExampleScenario.node[620].nic.mac1609_4 	totalBusyTime 	0
scalar IntersectionExampleScenario.node[620].veinsmobility 	startTime 	1795.75
scalar IntersectionExampleScenario.node[620].veinsmobility 	totalTime 	4.25
scalar IntersectionExampleScenario.node[620].veinsmobility 	stopTime 	1800
scalar IntersectionExampleScenario.node[620].veinsmobility 	minSpeed 	5.6500000953674
scalar IntersectionExampleScenario.node[620].veinsmobility 	maxSpeed 	15.64999961853
scalar IntersectionExampleScenario.node[620].veinsmobility 	totalDistance 	43.934387207031
scalar IntersectionExampleScenario.node[620].veinsmobility 	totalCO2Emission 	33.562634268961
scalar IntersectionExampleScenario.node[621].appl 	VehicleRemoved 	0
scalar IntersectionExampleScenario.node[621].appl 	ArrivedAtDest 	0
scalar IntersectionExampleScenario.node[621].appl 	IntersectionEnterTime 	1798
scalar IntersectionExampleScenario.node[621].appl 	IntersectionExitTime 	-1
scalar IntersectionExampleScenario.node[621].appl 	NumberOfCollisions 	0
scalar IntersectionExampleScenario.node[621].nic.phy80211p 	busyTime 	0
scalar IntersectionExampleScenario.node[621].nic.mac1609_4 	ReceivedUnicastPackets 	0
scalar IntersectionExampleScenario.node[621].nic.mac1609_4 	ReceivedBroadcasts 	0
scalar IntersectionExampleScenario.node[621].nic.mac1609_4 	SentPackets 	0
scalar IntersectionExampleScenario.node[621].nic.mac1609_4 	SNIRLostPackets 	0
scalar IntersectionExampleScenario.node[621].nic.mac1609_4 	RXTXLostPackets 	0
scalar IntersectionExampleScenario.node[621].nic.mac1609_4 	TotalLostPackets 	0
scalar IntersectionExampleScenario.node[621].nic.mac1609_4 	DroppedPacketsInMac 	0
scalar IntersectionExampleScenario.node[621].nic.mac1609_4 	TooLittleTime 	0
scalar IntersectionExampleScenario.node[621].nic.mac1609_4 	TimesIntoBackoff 	0
scalar IntersectionExampleScenario.node[621].nic.mac1609_4 	SlotsBackoff 	0
scalar IntersectionExampleScenario.node[621].nic.mac1609_4 	NumInternalContention 	0
scalar IntersectionExampleScenario.node[621].nic.mac1609_4 	totalBusyTime 	0
scalar IntersectionExampleScenario.node[621].veinsmobility 	startTime 	1798
scalar IntersectionExampleScenario.node[621].veinsmobility 	totalTime 	2
scalar IntersectionExampleScenario.node[621].veinsmobility 	stopTime 	1800
scalar IntersectionExampleScenario.node[621].veinsmobility 	minSpeed 	5.6500000953674
scalar IntersectionExampleScenario.node[621].veinsmobility 	maxSpeed 	7.7206602096558
scalar IntersectionExampleScenario.node[621].veinsmobility 	totalDistance 	12.319023132324
scalar IntersectionExampleScenario.node[621].veinsmobility 	totalCO2Emission 	6.7380535758326
scalar IntersectionExampleScenario.node[622].appl 	VehicleRemoved 	0
scalar IntersectionExampleScenario.node[622].appl 	ArrivedAtDest 	0
scalar IntersectionExampleScenario.node[622].appl 	IntersectionEnterTime 	1798.25
scalar IntersectionExampleScenario.node[622].appl 	IntersectionExitTime 	-1
scalar IntersectionExampleScenario.node[622].appl 	NumberOfCollisions 	0
scalar IntersectionExampleScenario.node[622].nic.phy80211p 	busyTime 	0
scalar IntersectionExampleScenario.node[622].nic.mac1609_4 	ReceivedUnicastPackets 	0
scalar IntersectionExampleScenario.node[622].nic.mac1609_4 	ReceivedBroadcasts 	0
scalar IntersectionExampleScenario.node[622].nic.mac1609_4 	SentPackets 	0
scalar IntersectionExampleScenario.node[622].nic.mac1609_4 	SNIRLostPackets 	0
scalar IntersectionExampleScenario.node[622].nic.mac1609_4 	RXTXLostPackets 	0
scalar IntersectionExampleScenario.node[622].nic.mac1609_4 	TotalLostPackets 	0
scalar IntersectionExampleScenario.node[622].nic.mac1609_4 	DroppedPacketsInMac 	0
scalar IntersectionExampleScenario.node[622].nic.mac1609_4 	TooLittleTime 	0
scalar IntersectionExampleScenario.node[622].nic.mac1609_4 	TimesIntoBackoff 	0
scalar IntersectionExampleScenario.node[622].nic.mac1609_4 	SlotsBackoff 	0
scalar IntersectionExampleScenario.node[622].nic.mac1609_4 	NumInternalContention 	0
scalar IntersectionExampleScenario.node[622].nic.mac1609_4 	totalBusyTime 	0
scalar IntersectionExampleScenario.node[622].veinsmobility 	startTime 	1798.25
scalar IntersectionExampleScenario.node[622].veinsmobility 	totalTime 	1.75
scalar IntersectionExampleScenario.node[622].veinsmobility 	stopTime 	1800
scalar IntersectionExampleScenario.node[622].veinsmobility 	minSpeed 	5.6500000953674
scalar IntersectionExampleScenario.node[622].veinsmobility 	maxSpeed 	9.3999996185303
scalar IntersectionExampleScenario.node[622].veinsmobility 	totalDistance 	12.621864318848
scalar IntersectionExampleScenario.node[622].veinsmobility 	totalCO2Emission 	9.3856839288341
scalar IntersectionExampleScenario.node[623].appl 	VehicleRemoved 	0
scalar IntersectionExampleScenario.node[623].appl 	ArrivedAtDest 	0
scalar IntersectionExampleScenario.node[623].appl 	IntersectionEnterTime 	1798.75
scalar IntersectionExampleScenario.node[623].appl 	IntersectionExitTime 	-1
scalar IntersectionExampleScenario.node[623].appl 	NumberOfCollisions 	0
scalar IntersectionExampleScenario.node[623].nic.phy80211p 	busyTime 	0
scalar IntersectionExampleScenario.node[623].nic.mac1609_4 	ReceivedUnicastPackets 	0
scalar IntersectionExampleScenario.node[623].nic.mac1609_4 	ReceivedBroadcasts 	0
scalar IntersectionExampleScenario.node[623].nic.mac1609_4 	SentPackets 	0
scalar IntersectionExampleScenario.node[623].nic.mac1609_4 	SNIRLostPackets 	0
scalar IntersectionExampleScenario.node[623].nic.mac1609_4 	RXTXLostPackets 	0
scalar IntersectionExampleScenario.node[623].nic.mac1609_4 	TotalLostPackets 	0
scalar IntersectionExampleScenario.node[623].nic.mac1609_4 	DroppedPacketsInMac 	0
scalar IntersectionExampleScenario.node[623].nic.mac1609_4 	TooLittleTime 	0
scalar IntersectionExampleScenario.node[623].nic.mac1609_4 	TimesIntoBackoff 	0
scalar IntersectionExampleScenario.node[623].nic.mac1609_4 	SlotsBackoff 	0
scalar IntersectionExampleScenario.node[623].nic.mac1609_4 	NumInternalContention 	0
scalar IntersectionExampleScenario.node[623].nic.mac1609_4 	totalBusyTime 	0
scalar IntersectionExampleScenario.node[623].veinsmobility 	startTime 	1798.75
scalar IntersectionExampleScenario.node[623].veinsmobility 	totalTime 	1.25
scalar IntersectionExampleScenario.node[623].veinsmobility 	stopTime 	1800
scalar IntersectionExampleScenario.node[623].veinsmobility 	minSpeed 	5.6500000953674
scalar IntersectionExampleScenario.node[623].veinsmobility 	maxSpeed 	8.1499996185303
scalar IntersectionExampleScenario.node[623].veinsmobility 	totalDistance 	8.234375
scalar IntersectionExampleScenario.node[623].veinsmobility 	totalCO2Emission 	5.8390974258108
