version 2
run nodebug-25-20200605-21:43:37-20324
attr configname nodebug
attr datetime 20200605-21:43:37
attr experiment nodebug
attr inifile omnetpp.ini
attr iterationvars ""
attr iterationvars2 $repetition=25
attr measurement ""
attr network "\"org.car2x.veins.modules.application.ExtTraCIScenarioManagerLaunchd.IntersectionExampleScenario\""
attr processid 20324
attr repetition 25
attr replication #25
attr resultdir results
attr runnumber 25
attr seedset 25
param **.coreDebug false
param **.debug false
param *.**.nic.mac1609_4.bitrate 18Mbps
param *.**.nic.mac1609_4.txPower 20mW
param *.**.nic.mac1609_4.useServiceChannel false
param *.**.nic.phy80211p.analogueModels "xmldoc(\"config.xml\")"
param *.**.nic.phy80211p.decider "xmldoc(\"config.xml\")"
param *.**.nic.phy80211p.sensitivity -89dBm
param *.**.nic.phy80211p.thermalNoise -110dBm
param *.**.nic.phy80211p.usePropagationDelay true
param *.**.nic.phy80211p.useThermalNoise true
param *.annotations.draw false
param *.connectionManager.alpha 2.0
param *.connectionManager.carrierFrequency "5.890e9 Hz"
param *.connectionManager.pMax 20mW
param *.connectionManager.sat -89dBm
param *.connectionManager.sendDirect true
param *.manager.autoShutdown true
param *.manager.host "\"localhost\""
param *.manager.launchConfig "xmldoc(\"paramics.launchd.xml\")"
param *.manager.margin 25
param *.manager.moduleDisplayString "\"\""
param *.manager.moduleName "\"node\""
param *.manager.moduleType "\"org.car2x.veins.nodes.Car\""
param *.manager.port 9999
param *.manager.updateInterval 250ms
param *.node[*0].veinsmobility.accidentCount 0
param *.node[*0].veinsmobility.accidentDuration 30s
param *.node[*0].veinsmobility.accidentStart 75s
param *.node[*].appl.LiderSelectZoneRadio 55.0
param *.node[*].appl.ShareDataZoneRadio 110.0
param *.node[*].appl.TiempoSemaforo 30.0
param *.node[*].appl.beaconInterval 1s
param *.node[*].appl.beaconPriority 3
param *.node[*].appl.dataOnSch false
param *.node[*].appl.dataPriority 2
param *.node[*].appl.debug false
param *.node[*].appl.headerLength "256 bit"
param *.node[*].appl.maxOffset 0.005s
param *.node[*].appl.sendBeacons false
param *.node[*].appl.sendData true
param *.node[*].applType "\"Dummy\""
param *.node[*].mobilityType "\"TraCIMobility\""
param *.node[*].mobilityType.debug true
param *.node[*].veinsmobility.x 0
param *.node[*].veinsmobility.y 0
param *.node[*].veinsmobility.z 1.895
param *.node[*].veinsmobilityType "\"org.car2x.veins.modules.mobility.traci.TraCIMobility\""
param *.node[*].veinsmobilityType.debug true
param *.playgroundSizeX 8500m
param *.playgroundSizeY 8500m
param *.playgroundSizeZ 50m
param *.world.use2D false
param *.world.useTorus false

scalar IntersectionExampleScenario.node[0].appl 	VehicleRemoved 	0
scalar IntersectionExampleScenario.node[0].appl 	ArrivedAtDest 	1
scalar IntersectionExampleScenario.node[0].appl 	IntersectionEnterTime 	1
scalar IntersectionExampleScenario.node[0].appl 	IntersectionExitTime 	35.273238904745
scalar IntersectionExampleScenario.node[0].appl 	NumberOfCollisions 	0
scalar IntersectionExampleScenario.node[0].nic.phy80211p 	busyTime 	0
scalar IntersectionExampleScenario.node[0].nic.mac1609_4 	ReceivedUnicastPackets 	0
scalar IntersectionExampleScenario.node[0].nic.mac1609_4 	ReceivedBroadcasts 	0
scalar IntersectionExampleScenario.node[0].nic.mac1609_4 	SentPackets 	0
scalar IntersectionExampleScenario.node[0].nic.mac1609_4 	SNIRLostPackets 	0
scalar IntersectionExampleScenario.node[0].nic.mac1609_4 	RXTXLostPackets 	0
scalar IntersectionExampleScenario.node[0].nic.mac1609_4 	TotalLostPackets 	0
scalar IntersectionExampleScenario.node[0].nic.mac1609_4 	DroppedPacketsInMac 	0
scalar IntersectionExampleScenario.node[0].nic.mac1609_4 	TooLittleTime 	0
scalar IntersectionExampleScenario.node[0].nic.mac1609_4 	TimesIntoBackoff 	0
scalar IntersectionExampleScenario.node[0].nic.mac1609_4 	SlotsBackoff 	0
scalar IntersectionExampleScenario.node[0].nic.mac1609_4 	NumInternalContention 	0
scalar IntersectionExampleScenario.node[0].nic.mac1609_4 	totalBusyTime 	0
scalar IntersectionExampleScenario.node[0].veinsmobility 	startTime 	1
scalar IntersectionExampleScenario.node[0].veinsmobility 	totalTime 	50
scalar IntersectionExampleScenario.node[0].veinsmobility 	stopTime 	51.25
scalar IntersectionExampleScenario.node[0].veinsmobility 	minSpeed 	0
scalar IntersectionExampleScenario.node[0].veinsmobility 	maxSpeed 	16
scalar IntersectionExampleScenario.node[0].veinsmobility 	totalDistance 	548.34687914004
scalar IntersectionExampleScenario.node[0].veinsmobility 	totalCO2Emission 	144.04319208639
scalar IntersectionExampleScenario.node[4].appl 	VehicleRemoved 	0
scalar IntersectionExampleScenario.node[4].appl 	ArrivedAtDest 	1
scalar IntersectionExampleScenario.node[4].appl 	IntersectionEnterTime 	20
scalar IntersectionExampleScenario.node[4].appl 	IntersectionExitTime 	42.354546813905
scalar IntersectionExampleScenario.node[4].appl 	NumberOfCollisions 	0
scalar IntersectionExampleScenario.node[4].nic.phy80211p 	busyTime 	0
scalar IntersectionExampleScenario.node[4].nic.mac1609_4 	ReceivedUnicastPackets 	0
scalar IntersectionExampleScenario.node[4].nic.mac1609_4 	ReceivedBroadcasts 	0
scalar IntersectionExampleScenario.node[4].nic.mac1609_4 	SentPackets 	0
scalar IntersectionExampleScenario.node[4].nic.mac1609_4 	SNIRLostPackets 	0
scalar IntersectionExampleScenario.node[4].nic.mac1609_4 	RXTXLostPackets 	0
scalar IntersectionExampleScenario.node[4].nic.mac1609_4 	TotalLostPackets 	0
scalar IntersectionExampleScenario.node[4].nic.mac1609_4 	DroppedPacketsInMac 	0
scalar IntersectionExampleScenario.node[4].nic.mac1609_4 	TooLittleTime 	0
scalar IntersectionExampleScenario.node[4].nic.mac1609_4 	TimesIntoBackoff 	0
scalar IntersectionExampleScenario.node[4].nic.mac1609_4 	SlotsBackoff 	0
scalar IntersectionExampleScenario.node[4].nic.mac1609_4 	NumInternalContention 	0
scalar IntersectionExampleScenario.node[4].nic.mac1609_4 	totalBusyTime 	0
scalar IntersectionExampleScenario.node[4].veinsmobility 	startTime 	20
scalar IntersectionExampleScenario.node[4].veinsmobility 	totalTime 	37.75
scalar IntersectionExampleScenario.node[4].veinsmobility 	stopTime 	58
scalar IntersectionExampleScenario.node[4].veinsmobility 	minSpeed 	5.6500000953674
scalar IntersectionExampleScenario.node[4].veinsmobility 	maxSpeed 	17.125
scalar IntersectionExampleScenario.node[4].veinsmobility 	totalDistance 	543.50088461934
scalar IntersectionExampleScenario.node[4].veinsmobility 	totalCO2Emission 	136.1504471947
scalar IntersectionExampleScenario.node[1].appl 	VehicleRemoved 	0
scalar IntersectionExampleScenario.node[1].appl 	ArrivedAtDest 	1
scalar IntersectionExampleScenario.node[1].appl 	IntersectionEnterTime 	1.25
scalar IntersectionExampleScenario.node[1].appl 	IntersectionExitTime 	48.554701383022
scalar IntersectionExampleScenario.node[1].appl 	NumberOfCollisions 	0
scalar IntersectionExampleScenario.node[1].nic.phy80211p 	busyTime 	0
scalar IntersectionExampleScenario.node[1].nic.mac1609_4 	ReceivedUnicastPackets 	0
scalar IntersectionExampleScenario.node[1].nic.mac1609_4 	ReceivedBroadcasts 	0
scalar IntersectionExampleScenario.node[1].nic.mac1609_4 	SentPackets 	0
scalar IntersectionExampleScenario.node[1].nic.mac1609_4 	SNIRLostPackets 	0
scalar IntersectionExampleScenario.node[1].nic.mac1609_4 	RXTXLostPackets 	0
scalar IntersectionExampleScenario.node[1].nic.mac1609_4 	TotalLostPackets 	0
scalar IntersectionExampleScenario.node[1].nic.mac1609_4 	DroppedPacketsInMac 	0
scalar IntersectionExampleScenario.node[1].nic.mac1609_4 	TooLittleTime 	0
scalar IntersectionExampleScenario.node[1].nic.mac1609_4 	TimesIntoBackoff 	0
scalar IntersectionExampleScenario.node[1].nic.mac1609_4 	SlotsBackoff 	0
scalar IntersectionExampleScenario.node[1].nic.mac1609_4 	NumInternalContention 	0
scalar IntersectionExampleScenario.node[1].nic.mac1609_4 	totalBusyTime 	0
scalar IntersectionExampleScenario.node[1].veinsmobility 	startTime 	1.25
scalar IntersectionExampleScenario.node[1].veinsmobility 	totalTime 	65.5
scalar IntersectionExampleScenario.node[1].veinsmobility 	stopTime 	67
scalar IntersectionExampleScenario.node[1].veinsmobility 	minSpeed 	0
scalar IntersectionExampleScenario.node[1].veinsmobility 	maxSpeed 	14.39999961853
scalar IntersectionExampleScenario.node[1].veinsmobility 	totalDistance 	546.27249051482
scalar IntersectionExampleScenario.node[1].veinsmobility 	totalCO2Emission 	146.63871854825
scalar IntersectionExampleScenario.node[2].appl 	VehicleRemoved 	0
scalar IntersectionExampleScenario.node[2].appl 	ArrivedAtDest 	1
scalar IntersectionExampleScenario.node[2].appl 	IntersectionEnterTime 	14.25
scalar IntersectionExampleScenario.node[2].appl 	IntersectionExitTime 	50.264130088268
scalar IntersectionExampleScenario.node[2].appl 	NumberOfCollisions 	0
scalar IntersectionExampleScenario.node[2].nic.phy80211p 	busyTime 	0
scalar IntersectionExampleScenario.node[2].nic.mac1609_4 	ReceivedUnicastPackets 	0
scalar IntersectionExampleScenario.node[2].nic.mac1609_4 	ReceivedBroadcasts 	0
scalar IntersectionExampleScenario.node[2].nic.mac1609_4 	SentPackets 	0
scalar IntersectionExampleScenario.node[2].nic.mac1609_4 	SNIRLostPackets 	0
scalar IntersectionExampleScenario.node[2].nic.mac1609_4 	RXTXLostPackets 	0
scalar IntersectionExampleScenario.node[2].nic.mac1609_4 	TotalLostPackets 	0
scalar IntersectionExampleScenario.node[2].nic.mac1609_4 	DroppedPacketsInMac 	0
scalar IntersectionExampleScenario.node[2].nic.mac1609_4 	TooLittleTime 	0
scalar IntersectionExampleScenario.node[2].nic.mac1609_4 	TimesIntoBackoff 	0
scalar IntersectionExampleScenario.node[2].nic.mac1609_4 	SlotsBackoff 	0
scalar IntersectionExampleScenario.node[2].nic.mac1609_4 	NumInternalContention 	0
scalar IntersectionExampleScenario.node[2].nic.mac1609_4 	totalBusyTime 	0
scalar IntersectionExampleScenario.node[2].veinsmobility 	startTime 	14.25
scalar IntersectionExampleScenario.node[2].veinsmobility 	totalTime 	53.5
scalar IntersectionExampleScenario.node[2].veinsmobility 	stopTime 	68
scalar IntersectionExampleScenario.node[2].veinsmobility 	minSpeed 	0
scalar IntersectionExampleScenario.node[2].veinsmobility 	maxSpeed 	14.75
scalar IntersectionExampleScenario.node[2].veinsmobility 	totalDistance 	552.05743398292
scalar IntersectionExampleScenario.node[2].veinsmobility 	totalCO2Emission 	134.60589230967
scalar IntersectionExampleScenario.node[3].appl 	VehicleRemoved 	0
scalar IntersectionExampleScenario.node[3].appl 	ArrivedAtDest 	1
scalar IntersectionExampleScenario.node[3].appl 	IntersectionEnterTime 	15.75
scalar IntersectionExampleScenario.node[3].appl 	IntersectionExitTime 	52.315089848795
scalar IntersectionExampleScenario.node[3].appl 	NumberOfCollisions 	0
scalar IntersectionExampleScenario.node[3].nic.phy80211p 	busyTime 	0
scalar IntersectionExampleScenario.node[3].nic.mac1609_4 	ReceivedUnicastPackets 	0
scalar IntersectionExampleScenario.node[3].nic.mac1609_4 	ReceivedBroadcasts 	0
scalar IntersectionExampleScenario.node[3].nic.mac1609_4 	SentPackets 	0
scalar IntersectionExampleScenario.node[3].nic.mac1609_4 	SNIRLostPackets 	0
scalar IntersectionExampleScenario.node[3].nic.mac1609_4 	RXTXLostPackets 	0
scalar IntersectionExampleScenario.node[3].nic.mac1609_4 	TotalLostPackets 	0
scalar IntersectionExampleScenario.node[3].nic.mac1609_4 	DroppedPacketsInMac 	0
scalar IntersectionExampleScenario.node[3].nic.mac1609_4 	TooLittleTime 	0
scalar IntersectionExampleScenario.node[3].nic.mac1609_4 	TimesIntoBackoff 	0
scalar IntersectionExampleScenario.node[3].nic.mac1609_4 	SlotsBackoff 	0
scalar IntersectionExampleScenario.node[3].nic.mac1609_4 	NumInternalContention 	0
scalar IntersectionExampleScenario.node[3].nic.mac1609_4 	totalBusyTime 	0
scalar IntersectionExampleScenario.node[3].veinsmobility 	startTime 	15.75
scalar IntersectionExampleScenario.node[3].veinsmobility 	totalTime 	52
scalar IntersectionExampleScenario.node[3].veinsmobility 	stopTime 	68
scalar IntersectionExampleScenario.node[3].veinsmobility 	minSpeed 	1.4713994264603
scalar IntersectionExampleScenario.node[3].veinsmobility 	maxSpeed 	16.125
scalar IntersectionExampleScenario.node[3].veinsmobility 	totalDistance 	571.66525268555
scalar IntersectionExampleScenario.node[3].veinsmobility 	totalCO2Emission 	149.0759637604
scalar IntersectionExampleScenario.node[8].appl 	VehicleRemoved 	0
scalar IntersectionExampleScenario.node[8].appl 	ArrivedAtDest 	1
scalar IntersectionExampleScenario.node[8].appl 	IntersectionEnterTime 	28.75
scalar IntersectionExampleScenario.node[8].appl 	IntersectionExitTime 	51.565727370617
scalar IntersectionExampleScenario.node[8].appl 	NumberOfCollisions 	0
scalar IntersectionExampleScenario.node[8].nic.phy80211p 	busyTime 	0
scalar IntersectionExampleScenario.node[8].nic.mac1609_4 	ReceivedUnicastPackets 	0
scalar IntersectionExampleScenario.node[8].nic.mac1609_4 	ReceivedBroadcasts 	0
scalar IntersectionExampleScenario.node[8].nic.mac1609_4 	SentPackets 	0
scalar IntersectionExampleScenario.node[8].nic.mac1609_4 	SNIRLostPackets 	0
scalar IntersectionExampleScenario.node[8].nic.mac1609_4 	RXTXLostPackets 	0
scalar IntersectionExampleScenario.node[8].nic.mac1609_4 	TotalLostPackets 	0
scalar IntersectionExampleScenario.node[8].nic.mac1609_4 	DroppedPacketsInMac 	0
scalar IntersectionExampleScenario.node[8].nic.mac1609_4 	TooLittleTime 	0
scalar IntersectionExampleScenario.node[8].nic.mac1609_4 	TimesIntoBackoff 	0
scalar IntersectionExampleScenario.node[8].nic.mac1609_4 	SlotsBackoff 	0
scalar IntersectionExampleScenario.node[8].nic.mac1609_4 	NumInternalContention 	0
scalar IntersectionExampleScenario.node[8].nic.mac1609_4 	totalBusyTime 	0
scalar IntersectionExampleScenario.node[8].veinsmobility 	startTime 	28.75
scalar IntersectionExampleScenario.node[8].veinsmobility 	totalTime 	40
scalar IntersectionExampleScenario.node[8].veinsmobility 	stopTime 	69
scalar IntersectionExampleScenario.node[8].veinsmobility 	minSpeed 	5.3799090385437
scalar IntersectionExampleScenario.node[8].veinsmobility 	maxSpeed 	16.27499961853
scalar IntersectionExampleScenario.node[8].veinsmobility 	totalDistance 	544.53243869978
scalar IntersectionExampleScenario.node[8].veinsmobility 	totalCO2Emission 	135.93253614164
scalar IntersectionExampleScenario.node[5].appl 	VehicleRemoved 	0
scalar IntersectionExampleScenario.node[5].appl 	ArrivedAtDest 	1
scalar IntersectionExampleScenario.node[5].appl 	IntersectionEnterTime 	23.5
scalar IntersectionExampleScenario.node[5].appl 	IntersectionExitTime 	54.124692611425
scalar IntersectionExampleScenario.node[5].appl 	NumberOfCollisions 	0
scalar IntersectionExampleScenario.node[5].nic.phy80211p 	busyTime 	0
scalar IntersectionExampleScenario.node[5].nic.mac1609_4 	ReceivedUnicastPackets 	0
scalar IntersectionExampleScenario.node[5].nic.mac1609_4 	ReceivedBroadcasts 	0
scalar IntersectionExampleScenario.node[5].nic.mac1609_4 	SentPackets 	0
scalar IntersectionExampleScenario.node[5].nic.mac1609_4 	SNIRLostPackets 	0
scalar IntersectionExampleScenario.node[5].nic.mac1609_4 	RXTXLostPackets 	0
scalar IntersectionExampleScenario.node[5].nic.mac1609_4 	TotalLostPackets 	0
scalar IntersectionExampleScenario.node[5].nic.mac1609_4 	DroppedPacketsInMac 	0
scalar IntersectionExampleScenario.node[5].nic.mac1609_4 	TooLittleTime 	0
scalar IntersectionExampleScenario.node[5].nic.mac1609_4 	TimesIntoBackoff 	0
scalar IntersectionExampleScenario.node[5].nic.mac1609_4 	SlotsBackoff 	0
scalar IntersectionExampleScenario.node[5].nic.mac1609_4 	NumInternalContention 	0
scalar IntersectionExampleScenario.node[5].nic.mac1609_4 	totalBusyTime 	0
scalar IntersectionExampleScenario.node[5].veinsmobility 	startTime 	23.5
scalar IntersectionExampleScenario.node[5].veinsmobility 	totalTime 	46
scalar IntersectionExampleScenario.node[5].veinsmobility 	stopTime 	69.75
scalar IntersectionExampleScenario.node[5].veinsmobility 	minSpeed 	2.4929542541504
scalar IntersectionExampleScenario.node[5].veinsmobility 	maxSpeed 	16.092638015747
scalar IntersectionExampleScenario.node[5].veinsmobility 	totalDistance 	554.4709854126
scalar IntersectionExampleScenario.node[5].veinsmobility 	totalCO2Emission 	140.68606737987
scalar IntersectionExampleScenario.node[6].appl 	VehicleRemoved 	0
scalar IntersectionExampleScenario.node[6].appl 	ArrivedAtDest 	1
scalar IntersectionExampleScenario.node[6].appl 	IntersectionEnterTime 	24.5
scalar IntersectionExampleScenario.node[6].appl 	IntersectionExitTime 	56.589991253742
scalar IntersectionExampleScenario.node[6].appl 	NumberOfCollisions 	0
scalar IntersectionExampleScenario.node[6].nic.phy80211p 	busyTime 	0
scalar IntersectionExampleScenario.node[6].nic.mac1609_4 	ReceivedUnicastPackets 	0
scalar IntersectionExampleScenario.node[6].nic.mac1609_4 	ReceivedBroadcasts 	0
scalar IntersectionExampleScenario.node[6].nic.mac1609_4 	SentPackets 	0
scalar IntersectionExampleScenario.node[6].nic.mac1609_4 	SNIRLostPackets 	0
scalar IntersectionExampleScenario.node[6].nic.mac1609_4 	RXTXLostPackets 	0
scalar IntersectionExampleScenario.node[6].nic.mac1609_4 	TotalLostPackets 	0
scalar IntersectionExampleScenario.node[6].nic.mac1609_4 	DroppedPacketsInMac 	0
scalar IntersectionExampleScenario.node[6].nic.mac1609_4 	TooLittleTime 	0
scalar IntersectionExampleScenario.node[6].nic.mac1609_4 	TimesIntoBackoff 	0
scalar IntersectionExampleScenario.node[6].nic.mac1609_4 	SlotsBackoff 	0
scalar IntersectionExampleScenario.node[6].nic.mac1609_4 	NumInternalContention 	0
scalar IntersectionExampleScenario.node[6].nic.mac1609_4 	totalBusyTime 	0
scalar IntersectionExampleScenario.node[6].veinsmobility 	startTime 	24.5
scalar IntersectionExampleScenario.node[6].veinsmobility 	totalTime 	48.75
scalar IntersectionExampleScenario.node[6].veinsmobility 	stopTime 	73.5
scalar IntersectionExampleScenario.node[6].veinsmobility 	minSpeed 	4.9840431213379
scalar IntersectionExampleScenario.node[6].veinsmobility 	maxSpeed 	14.975474357605
scalar IntersectionExampleScenario.node[6].veinsmobility 	totalDistance 	571.91271431358
scalar IntersectionExampleScenario.node[6].veinsmobility 	totalCO2Emission 	137.84750335355
scalar IntersectionExampleScenario.node[10].appl 	VehicleRemoved 	0
scalar IntersectionExampleScenario.node[10].appl 	ArrivedAtDest 	1
scalar IntersectionExampleScenario.node[10].appl 	IntersectionEnterTime 	31.25
scalar IntersectionExampleScenario.node[10].appl 	IntersectionExitTime 	58.063862850831
scalar IntersectionExampleScenario.node[10].appl 	NumberOfCollisions 	0
scalar IntersectionExampleScenario.node[10].nic.phy80211p 	busyTime 	0
scalar IntersectionExampleScenario.node[10].nic.mac1609_4 	ReceivedUnicastPackets 	0
scalar IntersectionExampleScenario.node[10].nic.mac1609_4 	ReceivedBroadcasts 	0
scalar IntersectionExampleScenario.node[10].nic.mac1609_4 	SentPackets 	0
scalar IntersectionExampleScenario.node[10].nic.mac1609_4 	SNIRLostPackets 	0
scalar IntersectionExampleScenario.node[10].nic.mac1609_4 	RXTXLostPackets 	0
scalar IntersectionExampleScenario.node[10].nic.mac1609_4 	TotalLostPackets 	0
scalar IntersectionExampleScenario.node[10].nic.mac1609_4 	DroppedPacketsInMac 	0
scalar IntersectionExampleScenario.node[10].nic.mac1609_4 	TooLittleTime 	0
scalar IntersectionExampleScenario.node[10].nic.mac1609_4 	TimesIntoBackoff 	0
scalar IntersectionExampleScenario.node[10].nic.mac1609_4 	SlotsBackoff 	0
scalar IntersectionExampleScenario.node[10].nic.mac1609_4 	NumInternalContention 	0
scalar IntersectionExampleScenario.node[10].nic.mac1609_4 	totalBusyTime 	0
scalar IntersectionExampleScenario.node[10].veinsmobility 	startTime 	31.25
scalar IntersectionExampleScenario.node[10].veinsmobility 	totalTime 	42.75
scalar IntersectionExampleScenario.node[10].veinsmobility 	stopTime 	74.25
scalar IntersectionExampleScenario.node[10].veinsmobility 	minSpeed 	5.6500000953674
scalar IntersectionExampleScenario.node[10].veinsmobility 	maxSpeed 	15.5
scalar IntersectionExampleScenario.node[10].veinsmobility 	totalDistance 	554.30966949463
scalar IntersectionExampleScenario.node[10].veinsmobility 	totalCO2Emission 	126.08365309536
scalar IntersectionExampleScenario.node[12].appl 	VehicleRemoved 	0
scalar IntersectionExampleScenario.node[12].appl 	ArrivedAtDest 	1
scalar IntersectionExampleScenario.node[12].appl 	IntersectionEnterTime 	34
scalar IntersectionExampleScenario.node[12].appl 	IntersectionExitTime 	60.357459427876
scalar IntersectionExampleScenario.node[12].appl 	NumberOfCollisions 	0
scalar IntersectionExampleScenario.node[12].nic.phy80211p 	busyTime 	0
scalar IntersectionExampleScenario.node[12].nic.mac1609_4 	ReceivedUnicastPackets 	0
scalar IntersectionExampleScenario.node[12].nic.mac1609_4 	ReceivedBroadcasts 	0
scalar IntersectionExampleScenario.node[12].nic.mac1609_4 	SentPackets 	0
scalar IntersectionExampleScenario.node[12].nic.mac1609_4 	SNIRLostPackets 	0
scalar IntersectionExampleScenario.node[12].nic.mac1609_4 	RXTXLostPackets 	0
scalar IntersectionExampleScenario.node[12].nic.mac1609_4 	TotalLostPackets 	0
scalar IntersectionExampleScenario.node[12].nic.mac1609_4 	DroppedPacketsInMac 	0
scalar IntersectionExampleScenario.node[12].nic.mac1609_4 	TooLittleTime 	0
scalar IntersectionExampleScenario.node[12].nic.mac1609_4 	TimesIntoBackoff 	0
scalar IntersectionExampleScenario.node[12].nic.mac1609_4 	SlotsBackoff 	0
scalar IntersectionExampleScenario.node[12].nic.mac1609_4 	NumInternalContention 	0
scalar IntersectionExampleScenario.node[12].nic.mac1609_4 	totalBusyTime 	0
scalar IntersectionExampleScenario.node[12].veinsmobility 	startTime 	34
scalar IntersectionExampleScenario.node[12].veinsmobility 	totalTime 	43
scalar IntersectionExampleScenario.node[12].veinsmobility 	stopTime 	77.25
scalar IntersectionExampleScenario.node[12].veinsmobility 	minSpeed 	5.6500000953674
scalar IntersectionExampleScenario.node[12].veinsmobility 	maxSpeed 	15.02499961853
scalar IntersectionExampleScenario.node[12].veinsmobility 	totalDistance 	565.11537461805
scalar IntersectionExampleScenario.node[12].veinsmobility 	totalCO2Emission 	128.77280550757
scalar IntersectionExampleScenario.node[15].appl 	VehicleRemoved 	0
scalar IntersectionExampleScenario.node[15].appl 	ArrivedAtDest 	1
scalar IntersectionExampleScenario.node[15].appl 	IntersectionEnterTime 	41.25
scalar IntersectionExampleScenario.node[15].appl 	IntersectionExitTime 	64.307312533754
scalar IntersectionExampleScenario.node[15].appl 	NumberOfCollisions 	0
scalar IntersectionExampleScenario.node[15].nic.phy80211p 	busyTime 	0
scalar IntersectionExampleScenario.node[15].nic.mac1609_4 	ReceivedUnicastPackets 	0
scalar IntersectionExampleScenario.node[15].nic.mac1609_4 	ReceivedBroadcasts 	0
scalar IntersectionExampleScenario.node[15].nic.mac1609_4 	SentPackets 	0
scalar IntersectionExampleScenario.node[15].nic.mac1609_4 	SNIRLostPackets 	0
scalar IntersectionExampleScenario.node[15].nic.mac1609_4 	RXTXLostPackets 	0
scalar IntersectionExampleScenario.node[15].nic.mac1609_4 	TotalLostPackets 	0
scalar IntersectionExampleScenario.node[15].nic.mac1609_4 	DroppedPacketsInMac 	0
scalar IntersectionExampleScenario.node[15].nic.mac1609_4 	TooLittleTime 	0
scalar IntersectionExampleScenario.node[15].nic.mac1609_4 	TimesIntoBackoff 	0
scalar IntersectionExampleScenario.node[15].nic.mac1609_4 	SlotsBackoff 	0
scalar IntersectionExampleScenario.node[15].nic.mac1609_4 	NumInternalContention 	0
scalar IntersectionExampleScenario.node[15].nic.mac1609_4 	totalBusyTime 	0
scalar IntersectionExampleScenario.node[15].veinsmobility 	startTime 	41.25
scalar IntersectionExampleScenario.node[15].veinsmobility 	totalTime 	39.5
scalar IntersectionExampleScenario.node[15].veinsmobility 	stopTime 	81
scalar IntersectionExampleScenario.node[15].veinsmobility 	minSpeed 	5.6500000953674
scalar IntersectionExampleScenario.node[15].veinsmobility 	maxSpeed 	16.27499961853
scalar IntersectionExampleScenario.node[15].veinsmobility 	totalDistance 	546.41647228092
scalar IntersectionExampleScenario.node[15].veinsmobility 	totalCO2Emission 	129.85528649529
scalar IntersectionExampleScenario.node[9].appl 	VehicleRemoved 	0
scalar IntersectionExampleScenario.node[9].appl 	ArrivedAtDest 	1
scalar IntersectionExampleScenario.node[9].appl 	IntersectionEnterTime 	31
scalar IntersectionExampleScenario.node[9].appl 	IntersectionExitTime 	65.852961805795
scalar IntersectionExampleScenario.node[9].appl 	NumberOfCollisions 	0
scalar IntersectionExampleScenario.node[9].nic.phy80211p 	busyTime 	0
scalar IntersectionExampleScenario.node[9].nic.mac1609_4 	ReceivedUnicastPackets 	0
scalar IntersectionExampleScenario.node[9].nic.mac1609_4 	ReceivedBroadcasts 	0
scalar IntersectionExampleScenario.node[9].nic.mac1609_4 	SentPackets 	0
scalar IntersectionExampleScenario.node[9].nic.mac1609_4 	SNIRLostPackets 	0
scalar IntersectionExampleScenario.node[9].nic.mac1609_4 	RXTXLostPackets 	0
scalar IntersectionExampleScenario.node[9].nic.mac1609_4 	TotalLostPackets 	0
scalar IntersectionExampleScenario.node[9].nic.mac1609_4 	DroppedPacketsInMac 	0
scalar IntersectionExampleScenario.node[9].nic.mac1609_4 	TooLittleTime 	0
scalar IntersectionExampleScenario.node[9].nic.mac1609_4 	TimesIntoBackoff 	0
scalar IntersectionExampleScenario.node[9].nic.mac1609_4 	SlotsBackoff 	0
scalar IntersectionExampleScenario.node[9].nic.mac1609_4 	NumInternalContention 	0
scalar IntersectionExampleScenario.node[9].nic.mac1609_4 	totalBusyTime 	0
scalar IntersectionExampleScenario.node[9].veinsmobility 	startTime 	31
scalar IntersectionExampleScenario.node[9].veinsmobility 	totalTime 	51.25
scalar IntersectionExampleScenario.node[9].veinsmobility 	stopTime 	82.5
scalar IntersectionExampleScenario.node[9].veinsmobility 	minSpeed 	0
scalar IntersectionExampleScenario.node[9].veinsmobility 	maxSpeed 	15.375
scalar IntersectionExampleScenario.node[9].veinsmobility 	totalDistance 	549.76284151506
scalar IntersectionExampleScenario.node[9].veinsmobility 	totalCO2Emission 	140.58604593276
scalar IntersectionExampleScenario.node[11].appl 	VehicleRemoved 	0
scalar IntersectionExampleScenario.node[11].appl 	ArrivedAtDest 	1
scalar IntersectionExampleScenario.node[11].appl 	IntersectionEnterTime 	33.75
scalar IntersectionExampleScenario.node[11].appl 	IntersectionExitTime 	67.259094740817
scalar IntersectionExampleScenario.node[11].appl 	NumberOfCollisions 	0
scalar IntersectionExampleScenario.node[11].nic.phy80211p 	busyTime 	0
scalar IntersectionExampleScenario.node[11].nic.mac1609_4 	ReceivedUnicastPackets 	0
scalar IntersectionExampleScenario.node[11].nic.mac1609_4 	ReceivedBroadcasts 	0
scalar IntersectionExampleScenario.node[11].nic.mac1609_4 	SentPackets 	0
scalar IntersectionExampleScenario.node[11].nic.mac1609_4 	SNIRLostPackets 	0
scalar IntersectionExampleScenario.node[11].nic.mac1609_4 	RXTXLostPackets 	0
scalar IntersectionExampleScenario.node[11].nic.mac1609_4 	TotalLostPackets 	0
scalar IntersectionExampleScenario.node[11].nic.mac1609_4 	DroppedPacketsInMac 	0
scalar IntersectionExampleScenario.node[11].nic.mac1609_4 	TooLittleTime 	0
scalar IntersectionExampleScenario.node[11].nic.mac1609_4 	TimesIntoBackoff 	0
scalar IntersectionExampleScenario.node[11].nic.mac1609_4 	SlotsBackoff 	0
scalar IntersectionExampleScenario.node[11].nic.mac1609_4 	NumInternalContention 	0
scalar IntersectionExampleScenario.node[11].nic.mac1609_4 	totalBusyTime 	0
scalar IntersectionExampleScenario.node[11].veinsmobility 	startTime 	33.75
scalar IntersectionExampleScenario.node[11].veinsmobility 	totalTime 	49.75
scalar IntersectionExampleScenario.node[11].veinsmobility 	stopTime 	83.75
scalar IntersectionExampleScenario.node[11].veinsmobility 	minSpeed 	0
scalar IntersectionExampleScenario.node[11].veinsmobility 	maxSpeed 	15.465215682983
scalar IntersectionExampleScenario.node[11].veinsmobility 	totalDistance 	566.47221374512
scalar IntersectionExampleScenario.node[11].veinsmobility 	totalCO2Emission 	140.91731702391
scalar IntersectionExampleScenario.node[16].appl 	VehicleRemoved 	0
scalar IntersectionExampleScenario.node[16].appl 	ArrivedAtDest 	1
scalar IntersectionExampleScenario.node[16].appl 	IntersectionEnterTime 	41.75
scalar IntersectionExampleScenario.node[16].appl 	IntersectionExitTime 	69.332759569021
scalar IntersectionExampleScenario.node[16].appl 	NumberOfCollisions 	0
scalar IntersectionExampleScenario.node[16].nic.phy80211p 	busyTime 	0
scalar IntersectionExampleScenario.node[16].nic.mac1609_4 	ReceivedUnicastPackets 	0
scalar IntersectionExampleScenario.node[16].nic.mac1609_4 	ReceivedBroadcasts 	0
scalar IntersectionExampleScenario.node[16].nic.mac1609_4 	SentPackets 	0
scalar IntersectionExampleScenario.node[16].nic.mac1609_4 	SNIRLostPackets 	0
scalar IntersectionExampleScenario.node[16].nic.mac1609_4 	RXTXLostPackets 	0
scalar IntersectionExampleScenario.node[16].nic.mac1609_4 	TotalLostPackets 	0
scalar IntersectionExampleScenario.node[16].nic.mac1609_4 	DroppedPacketsInMac 	0
scalar IntersectionExampleScenario.node[16].nic.mac1609_4 	TooLittleTime 	0
scalar IntersectionExampleScenario.node[16].nic.mac1609_4 	TimesIntoBackoff 	0
scalar IntersectionExampleScenario.node[16].nic.mac1609_4 	SlotsBackoff 	0
scalar IntersectionExampleScenario.node[16].nic.mac1609_4 	NumInternalContention 	0
scalar IntersectionExampleScenario.node[16].nic.mac1609_4 	totalBusyTime 	0
scalar IntersectionExampleScenario.node[16].veinsmobility 	startTime 	41.75
scalar IntersectionExampleScenario.node[16].veinsmobility 	totalTime 	43.5
scalar IntersectionExampleScenario.node[16].veinsmobility 	stopTime 	85.5
scalar IntersectionExampleScenario.node[16].veinsmobility 	minSpeed 	4.9920263290405
scalar IntersectionExampleScenario.node[16].veinsmobility 	maxSpeed 	15.586177825928
scalar IntersectionExampleScenario.node[16].veinsmobility 	totalDistance 	549.917779642
scalar IntersectionExampleScenario.node[16].veinsmobility 	totalCO2Emission 	137.47537634725
scalar IntersectionExampleScenario.node[7].appl 	VehicleRemoved 	0
scalar IntersectionExampleScenario.node[7].appl 	ArrivedAtDest 	1
scalar IntersectionExampleScenario.node[7].appl 	IntersectionEnterTime 	27.75
scalar IntersectionExampleScenario.node[7].appl 	IntersectionExitTime 	80.362534292188
scalar IntersectionExampleScenario.node[7].appl 	NumberOfCollisions 	0
scalar IntersectionExampleScenario.node[7].nic.phy80211p 	busyTime 	0
scalar IntersectionExampleScenario.node[7].nic.mac1609_4 	ReceivedUnicastPackets 	0
scalar IntersectionExampleScenario.node[7].nic.mac1609_4 	ReceivedBroadcasts 	0
scalar IntersectionExampleScenario.node[7].nic.mac1609_4 	SentPackets 	0
scalar IntersectionExampleScenario.node[7].nic.mac1609_4 	SNIRLostPackets 	0
scalar IntersectionExampleScenario.node[7].nic.mac1609_4 	RXTXLostPackets 	0
scalar IntersectionExampleScenario.node[7].nic.mac1609_4 	TotalLostPackets 	0
scalar IntersectionExampleScenario.node[7].nic.mac1609_4 	DroppedPacketsInMac 	0
scalar IntersectionExampleScenario.node[7].nic.mac1609_4 	TooLittleTime 	0
scalar IntersectionExampleScenario.node[7].nic.mac1609_4 	TimesIntoBackoff 	0
scalar IntersectionExampleScenario.node[7].nic.mac1609_4 	SlotsBackoff 	0
scalar IntersectionExampleScenario.node[7].nic.mac1609_4 	NumInternalContention 	0
scalar IntersectionExampleScenario.node[7].nic.mac1609_4 	totalBusyTime 	0
scalar IntersectionExampleScenario.node[7].veinsmobility 	startTime 	27.75
scalar IntersectionExampleScenario.node[7].veinsmobility 	totalTime 	68
scalar IntersectionExampleScenario.node[7].veinsmobility 	stopTime 	96
scalar IntersectionExampleScenario.node[7].veinsmobility 	minSpeed 	0
scalar IntersectionExampleScenario.node[7].veinsmobility 	maxSpeed 	16
scalar IntersectionExampleScenario.node[7].veinsmobility 	totalDistance 	550.89945220947
scalar IntersectionExampleScenario.node[7].veinsmobility 	totalCO2Emission 	163.18718106623
scalar IntersectionExampleScenario.node[13].appl 	VehicleRemoved 	0
scalar IntersectionExampleScenario.node[13].appl 	ArrivedAtDest 	1
scalar IntersectionExampleScenario.node[13].appl 	IntersectionEnterTime 	34.5
scalar IntersectionExampleScenario.node[13].appl 	IntersectionExitTime 	81.30111499902
scalar IntersectionExampleScenario.node[13].appl 	NumberOfCollisions 	0
scalar IntersectionExampleScenario.node[13].nic.phy80211p 	busyTime 	0
scalar IntersectionExampleScenario.node[13].nic.mac1609_4 	ReceivedUnicastPackets 	0
scalar IntersectionExampleScenario.node[13].nic.mac1609_4 	ReceivedBroadcasts 	0
scalar IntersectionExampleScenario.node[13].nic.mac1609_4 	SentPackets 	0
scalar IntersectionExampleScenario.node[13].nic.mac1609_4 	SNIRLostPackets 	0
scalar IntersectionExampleScenario.node[13].nic.mac1609_4 	RXTXLostPackets 	0
scalar IntersectionExampleScenario.node[13].nic.mac1609_4 	TotalLostPackets 	0
scalar IntersectionExampleScenario.node[13].nic.mac1609_4 	DroppedPacketsInMac 	0
scalar IntersectionExampleScenario.node[13].nic.mac1609_4 	TooLittleTime 	0
scalar IntersectionExampleScenario.node[13].nic.mac1609_4 	TimesIntoBackoff 	0
scalar IntersectionExampleScenario.node[13].nic.mac1609_4 	SlotsBackoff 	0
scalar IntersectionExampleScenario.node[13].nic.mac1609_4 	NumInternalContention 	0
scalar IntersectionExampleScenario.node[13].nic.mac1609_4 	totalBusyTime 	0
scalar IntersectionExampleScenario.node[13].veinsmobility 	startTime 	34.5
scalar IntersectionExampleScenario.node[13].veinsmobility 	totalTime 	62.75
scalar IntersectionExampleScenario.node[13].veinsmobility 	stopTime 	97.5
scalar IntersectionExampleScenario.node[13].veinsmobility 	minSpeed 	0
scalar IntersectionExampleScenario.node[13].veinsmobility 	maxSpeed 	16
scalar IntersectionExampleScenario.node[13].veinsmobility 	totalDistance 	549.90596927286
scalar IntersectionExampleScenario.node[13].veinsmobility 	totalCO2Emission 	155.06080953434
scalar IntersectionExampleScenario.node[14].appl 	VehicleRemoved 	0
scalar IntersectionExampleScenario.node[14].appl 	ArrivedAtDest 	1
scalar IntersectionExampleScenario.node[14].appl 	IntersectionEnterTime 	39
scalar IntersectionExampleScenario.node[14].appl 	IntersectionExitTime 	83.252778408234
scalar IntersectionExampleScenario.node[14].appl 	NumberOfCollisions 	0
scalar IntersectionExampleScenario.node[14].nic.phy80211p 	busyTime 	0
scalar IntersectionExampleScenario.node[14].nic.mac1609_4 	ReceivedUnicastPackets 	0
scalar IntersectionExampleScenario.node[14].nic.mac1609_4 	ReceivedBroadcasts 	0
scalar IntersectionExampleScenario.node[14].nic.mac1609_4 	SentPackets 	0
scalar IntersectionExampleScenario.node[14].nic.mac1609_4 	SNIRLostPackets 	0
scalar IntersectionExampleScenario.node[14].nic.mac1609_4 	RXTXLostPackets 	0
scalar IntersectionExampleScenario.node[14].nic.mac1609_4 	TotalLostPackets 	0
scalar IntersectionExampleScenario.node[14].nic.mac1609_4 	DroppedPacketsInMac 	0
scalar IntersectionExampleScenario.node[14].nic.mac1609_4 	TooLittleTime 	0
scalar IntersectionExampleScenario.node[14].nic.mac1609_4 	TimesIntoBackoff 	0
scalar IntersectionExampleScenario.node[14].nic.mac1609_4 	SlotsBackoff 	0
scalar IntersectionExampleScenario.node[14].nic.mac1609_4 	NumInternalContention 	0
scalar IntersectionExampleScenario.node[14].nic.mac1609_4 	totalBusyTime 	0
scalar IntersectionExampleScenario.node[14].veinsmobility 	startTime 	39
scalar IntersectionExampleScenario.node[14].veinsmobility 	totalTime 	60.25
scalar IntersectionExampleScenario.node[14].veinsmobility 	stopTime 	99.5
scalar IntersectionExampleScenario.node[14].veinsmobility 	minSpeed 	0
scalar IntersectionExampleScenario.node[14].veinsmobility 	maxSpeed 	15.852598190308
scalar IntersectionExampleScenario.node[14].veinsmobility 	totalDistance 	548.46804716367
scalar IntersectionExampleScenario.node[14].veinsmobility 	totalCO2Emission 	150.88502072055
scalar IntersectionExampleScenario.node[18].appl 	VehicleRemoved 	0
scalar IntersectionExampleScenario.node[18].appl 	ArrivedAtDest 	1
scalar IntersectionExampleScenario.node[18].appl 	IntersectionEnterTime 	43.5
scalar IntersectionExampleScenario.node[18].appl 	IntersectionExitTime 	85.832585501019
scalar IntersectionExampleScenario.node[18].appl 	NumberOfCollisions 	0
scalar IntersectionExampleScenario.node[18].nic.phy80211p 	busyTime 	0
scalar IntersectionExampleScenario.node[18].nic.mac1609_4 	ReceivedUnicastPackets 	0
scalar IntersectionExampleScenario.node[18].nic.mac1609_4 	ReceivedBroadcasts 	0
scalar IntersectionExampleScenario.node[18].nic.mac1609_4 	SentPackets 	0
scalar IntersectionExampleScenario.node[18].nic.mac1609_4 	SNIRLostPackets 	0
scalar IntersectionExampleScenario.node[18].nic.mac1609_4 	RXTXLostPackets 	0
scalar IntersectionExampleScenario.node[18].nic.mac1609_4 	TotalLostPackets 	0
scalar IntersectionExampleScenario.node[18].nic.mac1609_4 	DroppedPacketsInMac 	0
scalar IntersectionExampleScenario.node[18].nic.mac1609_4 	TooLittleTime 	0
scalar IntersectionExampleScenario.node[18].nic.mac1609_4 	TimesIntoBackoff 	0
scalar IntersectionExampleScenario.node[18].nic.mac1609_4 	SlotsBackoff 	0
scalar IntersectionExampleScenario.node[18].nic.mac1609_4 	NumInternalContention 	0
scalar IntersectionExampleScenario.node[18].nic.mac1609_4 	totalBusyTime 	0
scalar IntersectionExampleScenario.node[18].veinsmobility 	startTime 	43.5
scalar IntersectionExampleScenario.node[18].veinsmobility 	totalTime 	59.25
scalar IntersectionExampleScenario.node[18].veinsmobility 	stopTime 	103
scalar IntersectionExampleScenario.node[18].veinsmobility 	minSpeed 	0
scalar IntersectionExampleScenario.node[18].veinsmobility 	maxSpeed 	15.25
scalar IntersectionExampleScenario.node[18].veinsmobility 	totalDistance 	522.96696288581
scalar IntersectionExampleScenario.node[18].veinsmobility 	totalCO2Emission 	148.02812936159
scalar IntersectionExampleScenario.node[17].appl 	VehicleRemoved 	0
scalar IntersectionExampleScenario.node[17].appl 	ArrivedAtDest 	1
scalar IntersectionExampleScenario.node[17].appl 	IntersectionEnterTime 	42.5
scalar IntersectionExampleScenario.node[17].appl 	IntersectionExitTime 	88.623809313693
scalar IntersectionExampleScenario.node[17].appl 	NumberOfCollisions 	0
scalar IntersectionExampleScenario.node[17].nic.phy80211p 	busyTime 	0
scalar IntersectionExampleScenario.node[17].nic.mac1609_4 	ReceivedUnicastPackets 	0
scalar IntersectionExampleScenario.node[17].nic.mac1609_4 	ReceivedBroadcasts 	0
scalar IntersectionExampleScenario.node[17].nic.mac1609_4 	SentPackets 	0
scalar IntersectionExampleScenario.node[17].nic.mac1609_4 	SNIRLostPackets 	0
scalar IntersectionExampleScenario.node[17].nic.mac1609_4 	RXTXLostPackets 	0
scalar IntersectionExampleScenario.node[17].nic.mac1609_4 	TotalLostPackets 	0
scalar IntersectionExampleScenario.node[17].nic.mac1609_4 	DroppedPacketsInMac 	0
scalar IntersectionExampleScenario.node[17].nic.mac1609_4 	TooLittleTime 	0
scalar IntersectionExampleScenario.node[17].nic.mac1609_4 	TimesIntoBackoff 	0
scalar IntersectionExampleScenario.node[17].nic.mac1609_4 	SlotsBackoff 	0
scalar IntersectionExampleScenario.node[17].nic.mac1609_4 	NumInternalContention 	0
scalar IntersectionExampleScenario.node[17].nic.mac1609_4 	totalBusyTime 	0
scalar IntersectionExampleScenario.node[17].veinsmobility 	startTime 	42.5
scalar IntersectionExampleScenario.node[17].veinsmobility 	totalTime 	62.75
scalar IntersectionExampleScenario.node[17].veinsmobility 	stopTime 	105.5
scalar IntersectionExampleScenario.node[17].veinsmobility 	minSpeed 	0
scalar IntersectionExampleScenario.node[17].veinsmobility 	maxSpeed 	15.25
scalar IntersectionExampleScenario.node[17].veinsmobility 	totalDistance 	554.8971981214
scalar IntersectionExampleScenario.node[17].veinsmobility 	totalCO2Emission 	159.14396855573
scalar IntersectionExampleScenario.node[19].appl 	VehicleRemoved 	0
scalar IntersectionExampleScenario.node[19].appl 	ArrivedAtDest 	1
scalar IntersectionExampleScenario.node[19].appl 	IntersectionEnterTime 	43.75
scalar IntersectionExampleScenario.node[19].appl 	IntersectionExitTime 	90.038840993046
scalar IntersectionExampleScenario.node[19].appl 	NumberOfCollisions 	0
scalar IntersectionExampleScenario.node[19].nic.phy80211p 	busyTime 	0
scalar IntersectionExampleScenario.node[19].nic.mac1609_4 	ReceivedUnicastPackets 	0
scalar IntersectionExampleScenario.node[19].nic.mac1609_4 	ReceivedBroadcasts 	0
scalar IntersectionExampleScenario.node[19].nic.mac1609_4 	SentPackets 	0
scalar IntersectionExampleScenario.node[19].nic.mac1609_4 	SNIRLostPackets 	0
scalar IntersectionExampleScenario.node[19].nic.mac1609_4 	RXTXLostPackets 	0
scalar IntersectionExampleScenario.node[19].nic.mac1609_4 	TotalLostPackets 	0
scalar IntersectionExampleScenario.node[19].nic.mac1609_4 	DroppedPacketsInMac 	0
scalar IntersectionExampleScenario.node[19].nic.mac1609_4 	TooLittleTime 	0
scalar IntersectionExampleScenario.node[19].nic.mac1609_4 	TimesIntoBackoff 	0
scalar IntersectionExampleScenario.node[19].nic.mac1609_4 	SlotsBackoff 	0
scalar IntersectionExampleScenario.node[19].nic.mac1609_4 	NumInternalContention 	0
scalar IntersectionExampleScenario.node[19].nic.mac1609_4 	totalBusyTime 	0
scalar IntersectionExampleScenario.node[19].veinsmobility 	startTime 	43.75
scalar IntersectionExampleScenario.node[19].veinsmobility 	totalTime 	61.75
scalar IntersectionExampleScenario.node[19].veinsmobility 	stopTime 	105.75
scalar IntersectionExampleScenario.node[19].veinsmobility 	minSpeed 	0
scalar IntersectionExampleScenario.node[19].veinsmobility 	maxSpeed 	16.125
scalar IntersectionExampleScenario.node[19].veinsmobility 	totalDistance 	579.27463531494
scalar IntersectionExampleScenario.node[19].veinsmobility 	totalCO2Emission 	161.44029650057
scalar IntersectionExampleScenario.node[20].appl 	VehicleRemoved 	0
scalar IntersectionExampleScenario.node[20].appl 	ArrivedAtDest 	1
scalar IntersectionExampleScenario.node[20].appl 	IntersectionEnterTime 	48
scalar IntersectionExampleScenario.node[20].appl 	IntersectionExitTime 	92.344900957192
scalar IntersectionExampleScenario.node[20].appl 	NumberOfCollisions 	0
scalar IntersectionExampleScenario.node[20].nic.phy80211p 	busyTime 	0
scalar IntersectionExampleScenario.node[20].nic.mac1609_4 	ReceivedUnicastPackets 	0
scalar IntersectionExampleScenario.node[20].nic.mac1609_4 	ReceivedBroadcasts 	0
scalar IntersectionExampleScenario.node[20].nic.mac1609_4 	SentPackets 	0
scalar IntersectionExampleScenario.node[20].nic.mac1609_4 	SNIRLostPackets 	0
scalar IntersectionExampleScenario.node[20].nic.mac1609_4 	RXTXLostPackets 	0
scalar IntersectionExampleScenario.node[20].nic.mac1609_4 	TotalLostPackets 	0
scalar IntersectionExampleScenario.node[20].nic.mac1609_4 	DroppedPacketsInMac 	0
scalar IntersectionExampleScenario.node[20].nic.mac1609_4 	TooLittleTime 	0
scalar IntersectionExampleScenario.node[20].nic.mac1609_4 	TimesIntoBackoff 	0
scalar IntersectionExampleScenario.node[20].nic.mac1609_4 	SlotsBackoff 	0
scalar IntersectionExampleScenario.node[20].nic.mac1609_4 	NumInternalContention 	0
scalar IntersectionExampleScenario.node[20].nic.mac1609_4 	totalBusyTime 	0
scalar IntersectionExampleScenario.node[20].veinsmobility 	startTime 	48
scalar IntersectionExampleScenario.node[20].veinsmobility 	totalTime 	60.75
scalar IntersectionExampleScenario.node[20].veinsmobility 	stopTime 	109
scalar IntersectionExampleScenario.node[20].veinsmobility 	minSpeed 	0
scalar IntersectionExampleScenario.node[20].veinsmobility 	maxSpeed 	16.27499961853
scalar IntersectionExampleScenario.node[20].veinsmobility 	totalDistance 	566.17900923989
scalar IntersectionExampleScenario.node[20].veinsmobility 	totalCO2Emission 	161.05897038897
scalar IntersectionExampleScenario.node[21].appl 	VehicleRemoved 	0
scalar IntersectionExampleScenario.node[21].appl 	ArrivedAtDest 	1
scalar IntersectionExampleScenario.node[21].appl 	IntersectionEnterTime 	49.5
scalar IntersectionExampleScenario.node[21].appl 	IntersectionExitTime 	93.511804949027
scalar IntersectionExampleScenario.node[21].appl 	NumberOfCollisions 	0
scalar IntersectionExampleScenario.node[21].nic.phy80211p 	busyTime 	0
scalar IntersectionExampleScenario.node[21].nic.mac1609_4 	ReceivedUnicastPackets 	0
scalar IntersectionExampleScenario.node[21].nic.mac1609_4 	ReceivedBroadcasts 	0
scalar IntersectionExampleScenario.node[21].nic.mac1609_4 	SentPackets 	0
scalar IntersectionExampleScenario.node[21].nic.mac1609_4 	SNIRLostPackets 	0
scalar IntersectionExampleScenario.node[21].nic.mac1609_4 	RXTXLostPackets 	0
scalar IntersectionExampleScenario.node[21].nic.mac1609_4 	TotalLostPackets 	0
scalar IntersectionExampleScenario.node[21].nic.mac1609_4 	DroppedPacketsInMac 	0
scalar IntersectionExampleScenario.node[21].nic.mac1609_4 	TooLittleTime 	0
scalar IntersectionExampleScenario.node[21].nic.mac1609_4 	TimesIntoBackoff 	0
scalar IntersectionExampleScenario.node[21].nic.mac1609_4 	SlotsBackoff 	0
scalar IntersectionExampleScenario.node[21].nic.mac1609_4 	NumInternalContention 	0
scalar IntersectionExampleScenario.node[21].nic.mac1609_4 	totalBusyTime 	0
scalar IntersectionExampleScenario.node[21].veinsmobility 	startTime 	49.5
scalar IntersectionExampleScenario.node[21].veinsmobility 	totalTime 	60.25
scalar IntersectionExampleScenario.node[21].veinsmobility 	stopTime 	110
scalar IntersectionExampleScenario.node[21].veinsmobility 	minSpeed 	0
scalar IntersectionExampleScenario.node[21].veinsmobility 	maxSpeed 	16.27499961853
scalar IntersectionExampleScenario.node[21].veinsmobility 	totalDistance 	546.04446317107
scalar IntersectionExampleScenario.node[21].veinsmobility 	totalCO2Emission 	157.79890063765
scalar IntersectionExampleScenario.node[27].appl 	VehicleRemoved 	0
scalar IntersectionExampleScenario.node[27].appl 	ArrivedAtDest 	1
scalar IntersectionExampleScenario.node[27].appl 	IntersectionEnterTime 	73
scalar IntersectionExampleScenario.node[27].appl 	IntersectionExitTime 	96.040000891022
scalar IntersectionExampleScenario.node[27].appl 	NumberOfCollisions 	0
scalar IntersectionExampleScenario.node[27].nic.phy80211p 	busyTime 	0
scalar IntersectionExampleScenario.node[27].nic.mac1609_4 	ReceivedUnicastPackets 	0
scalar IntersectionExampleScenario.node[27].nic.mac1609_4 	ReceivedBroadcasts 	0
scalar IntersectionExampleScenario.node[27].nic.mac1609_4 	SentPackets 	0
scalar IntersectionExampleScenario.node[27].nic.mac1609_4 	SNIRLostPackets 	0
scalar IntersectionExampleScenario.node[27].nic.mac1609_4 	RXTXLostPackets 	0
scalar IntersectionExampleScenario.node[27].nic.mac1609_4 	TotalLostPackets 	0
scalar IntersectionExampleScenario.node[27].nic.mac1609_4 	DroppedPacketsInMac 	0
scalar IntersectionExampleScenario.node[27].nic.mac1609_4 	TooLittleTime 	0
scalar IntersectionExampleScenario.node[27].nic.mac1609_4 	TimesIntoBackoff 	0
scalar IntersectionExampleScenario.node[27].nic.mac1609_4 	SlotsBackoff 	0
scalar IntersectionExampleScenario.node[27].nic.mac1609_4 	NumInternalContention 	0
scalar IntersectionExampleScenario.node[27].nic.mac1609_4 	totalBusyTime 	0
scalar IntersectionExampleScenario.node[27].veinsmobility 	startTime 	73
scalar IntersectionExampleScenario.node[27].veinsmobility 	totalTime 	39.25
scalar IntersectionExampleScenario.node[27].veinsmobility 	stopTime 	112.5
scalar IntersectionExampleScenario.node[27].veinsmobility 	minSpeed 	5.6500000953674
scalar IntersectionExampleScenario.node[27].veinsmobility 	maxSpeed 	15.64999961853
scalar IntersectionExampleScenario.node[27].veinsmobility 	totalDistance 	551.85443029508
scalar IntersectionExampleScenario.node[27].veinsmobility 	totalCO2Emission 	124.50688858133
scalar IntersectionExampleScenario.node[28].appl 	VehicleRemoved 	0
scalar IntersectionExampleScenario.node[28].appl 	ArrivedAtDest 	1
scalar IntersectionExampleScenario.node[28].appl 	IntersectionEnterTime 	73.25
scalar IntersectionExampleScenario.node[28].appl 	IntersectionExitTime 	98.825245150976
scalar IntersectionExampleScenario.node[28].appl 	NumberOfCollisions 	0
scalar IntersectionExampleScenario.node[28].nic.phy80211p 	busyTime 	0
scalar IntersectionExampleScenario.node[28].nic.mac1609_4 	ReceivedUnicastPackets 	0
scalar IntersectionExampleScenario.node[28].nic.mac1609_4 	ReceivedBroadcasts 	0
scalar IntersectionExampleScenario.node[28].nic.mac1609_4 	SentPackets 	0
scalar IntersectionExampleScenario.node[28].nic.mac1609_4 	SNIRLostPackets 	0
scalar IntersectionExampleScenario.node[28].nic.mac1609_4 	RXTXLostPackets 	0
scalar IntersectionExampleScenario.node[28].nic.mac1609_4 	TotalLostPackets 	0
scalar IntersectionExampleScenario.node[28].nic.mac1609_4 	DroppedPacketsInMac 	0
scalar IntersectionExampleScenario.node[28].nic.mac1609_4 	TooLittleTime 	0
scalar IntersectionExampleScenario.node[28].nic.mac1609_4 	TimesIntoBackoff 	0
scalar IntersectionExampleScenario.node[28].nic.mac1609_4 	SlotsBackoff 	0
scalar IntersectionExampleScenario.node[28].nic.mac1609_4 	NumInternalContention 	0
scalar IntersectionExampleScenario.node[28].nic.mac1609_4 	totalBusyTime 	0
scalar IntersectionExampleScenario.node[28].veinsmobility 	startTime 	73.25
scalar IntersectionExampleScenario.node[28].veinsmobility 	totalTime 	41.5
scalar IntersectionExampleScenario.node[28].veinsmobility 	stopTime 	115
scalar IntersectionExampleScenario.node[28].veinsmobility 	minSpeed 	5.6500000953674
scalar IntersectionExampleScenario.node[28].veinsmobility 	maxSpeed 	16.019559860229
scalar IntersectionExampleScenario.node[28].veinsmobility 	totalDistance 	574.50083959748
scalar IntersectionExampleScenario.node[28].veinsmobility 	totalCO2Emission 	131.17344568103
scalar IntersectionExampleScenario.node[30].appl 	VehicleRemoved 	0
scalar IntersectionExampleScenario.node[30].appl 	ArrivedAtDest 	1
scalar IntersectionExampleScenario.node[30].appl 	IntersectionEnterTime 	82.75
scalar IntersectionExampleScenario.node[30].appl 	IntersectionExitTime 	105.58876013034
scalar IntersectionExampleScenario.node[30].appl 	NumberOfCollisions 	0
scalar IntersectionExampleScenario.node[30].nic.phy80211p 	busyTime 	0
scalar IntersectionExampleScenario.node[30].nic.mac1609_4 	ReceivedUnicastPackets 	0
scalar IntersectionExampleScenario.node[30].nic.mac1609_4 	ReceivedBroadcasts 	0
scalar IntersectionExampleScenario.node[30].nic.mac1609_4 	SentPackets 	0
scalar IntersectionExampleScenario.node[30].nic.mac1609_4 	SNIRLostPackets 	0
scalar IntersectionExampleScenario.node[30].nic.mac1609_4 	RXTXLostPackets 	0
scalar IntersectionExampleScenario.node[30].nic.mac1609_4 	TotalLostPackets 	0
scalar IntersectionExampleScenario.node[30].nic.mac1609_4 	DroppedPacketsInMac 	0
scalar IntersectionExampleScenario.node[30].nic.mac1609_4 	TooLittleTime 	0
scalar IntersectionExampleScenario.node[30].nic.mac1609_4 	TimesIntoBackoff 	0
scalar IntersectionExampleScenario.node[30].nic.mac1609_4 	SlotsBackoff 	0
scalar IntersectionExampleScenario.node[30].nic.mac1609_4 	NumInternalContention 	0
scalar IntersectionExampleScenario.node[30].nic.mac1609_4 	totalBusyTime 	0
scalar IntersectionExampleScenario.node[30].veinsmobility 	startTime 	82.75
scalar IntersectionExampleScenario.node[30].veinsmobility 	totalTime 	38.5
scalar IntersectionExampleScenario.node[30].veinsmobility 	stopTime 	121.5
scalar IntersectionExampleScenario.node[30].veinsmobility 	minSpeed 	5.6500000953674
scalar IntersectionExampleScenario.node[30].veinsmobility 	maxSpeed 	15.64999961853
scalar IntersectionExampleScenario.node[30].veinsmobility 	totalDistance 	551.90103912354
scalar IntersectionExampleScenario.node[30].veinsmobility 	totalCO2Emission 	118.09027269579
scalar IntersectionExampleScenario.node[23].appl 	VehicleRemoved 	0
scalar IntersectionExampleScenario.node[23].appl 	ArrivedAtDest 	1
scalar IntersectionExampleScenario.node[23].appl 	IntersectionEnterTime 	59.5
scalar IntersectionExampleScenario.node[23].appl 	IntersectionExitTime 	111.33617965918
scalar IntersectionExampleScenario.node[23].appl 	NumberOfCollisions 	0
scalar IntersectionExampleScenario.node[23].nic.phy80211p 	busyTime 	0
scalar IntersectionExampleScenario.node[23].nic.mac1609_4 	ReceivedUnicastPackets 	0
scalar IntersectionExampleScenario.node[23].nic.mac1609_4 	ReceivedBroadcasts 	0
scalar IntersectionExampleScenario.node[23].nic.mac1609_4 	SentPackets 	0
scalar IntersectionExampleScenario.node[23].nic.mac1609_4 	SNIRLostPackets 	0
scalar IntersectionExampleScenario.node[23].nic.mac1609_4 	RXTXLostPackets 	0
scalar IntersectionExampleScenario.node[23].nic.mac1609_4 	TotalLostPackets 	0
scalar IntersectionExampleScenario.node[23].nic.mac1609_4 	DroppedPacketsInMac 	0
scalar IntersectionExampleScenario.node[23].nic.mac1609_4 	TooLittleTime 	0
scalar IntersectionExampleScenario.node[23].nic.mac1609_4 	TimesIntoBackoff 	0
scalar IntersectionExampleScenario.node[23].nic.mac1609_4 	SlotsBackoff 	0
scalar IntersectionExampleScenario.node[23].nic.mac1609_4 	NumInternalContention 	0
scalar IntersectionExampleScenario.node[23].nic.mac1609_4 	totalBusyTime 	0
scalar IntersectionExampleScenario.node[23].veinsmobility 	startTime 	59.5
scalar IntersectionExampleScenario.node[23].veinsmobility 	totalTime 	67.25
scalar IntersectionExampleScenario.node[23].veinsmobility 	stopTime 	127
scalar IntersectionExampleScenario.node[23].veinsmobility 	minSpeed 	0
scalar IntersectionExampleScenario.node[23].veinsmobility 	maxSpeed 	16.27499961853
scalar IntersectionExampleScenario.node[23].veinsmobility 	totalDistance 	551.97518920898
scalar IntersectionExampleScenario.node[23].veinsmobility 	totalCO2Emission 	163.37969475557
scalar IntersectionExampleScenario.node[24].appl 	VehicleRemoved 	0
scalar IntersectionExampleScenario.node[24].appl 	ArrivedAtDest 	1
scalar IntersectionExampleScenario.node[24].appl 	IntersectionEnterTime 	67
scalar IntersectionExampleScenario.node[24].appl 	IntersectionExitTime 	112.01054527797
scalar IntersectionExampleScenario.node[24].appl 	NumberOfCollisions 	0
scalar IntersectionExampleScenario.node[24].nic.phy80211p 	busyTime 	0
scalar IntersectionExampleScenario.node[24].nic.mac1609_4 	ReceivedUnicastPackets 	0
scalar IntersectionExampleScenario.node[24].nic.mac1609_4 	ReceivedBroadcasts 	0
scalar IntersectionExampleScenario.node[24].nic.mac1609_4 	SentPackets 	0
scalar IntersectionExampleScenario.node[24].nic.mac1609_4 	SNIRLostPackets 	0
scalar IntersectionExampleScenario.node[24].nic.mac1609_4 	RXTXLostPackets 	0
scalar IntersectionExampleScenario.node[24].nic.mac1609_4 	TotalLostPackets 	0
scalar IntersectionExampleScenario.node[24].nic.mac1609_4 	DroppedPacketsInMac 	0
scalar IntersectionExampleScenario.node[24].nic.mac1609_4 	TooLittleTime 	0
scalar IntersectionExampleScenario.node[24].nic.mac1609_4 	TimesIntoBackoff 	0
scalar IntersectionExampleScenario.node[24].nic.mac1609_4 	SlotsBackoff 	0
scalar IntersectionExampleScenario.node[24].nic.mac1609_4 	NumInternalContention 	0
scalar IntersectionExampleScenario.node[24].nic.mac1609_4 	totalBusyTime 	0
scalar IntersectionExampleScenario.node[24].veinsmobility 	startTime 	67
scalar IntersectionExampleScenario.node[24].veinsmobility 	totalTime 	61.5
scalar IntersectionExampleScenario.node[24].veinsmobility 	stopTime 	128.75
scalar IntersectionExampleScenario.node[24].veinsmobility 	minSpeed 	0
scalar IntersectionExampleScenario.node[24].veinsmobility 	maxSpeed 	15.875
scalar IntersectionExampleScenario.node[24].veinsmobility 	totalDistance 	545.11883188213
scalar IntersectionExampleScenario.node[24].veinsmobility 	totalCO2Emission 	152.10657987053
scalar IntersectionExampleScenario.node[25].appl 	VehicleRemoved 	0
scalar IntersectionExampleScenario.node[25].appl 	ArrivedAtDest 	1
scalar IntersectionExampleScenario.node[25].appl 	IntersectionEnterTime 	69
scalar IntersectionExampleScenario.node[25].appl 	IntersectionExitTime 	114.53054743959
scalar IntersectionExampleScenario.node[25].appl 	NumberOfCollisions 	0
scalar IntersectionExampleScenario.node[25].nic.phy80211p 	busyTime 	0
scalar IntersectionExampleScenario.node[25].nic.mac1609_4 	ReceivedUnicastPackets 	0
scalar IntersectionExampleScenario.node[25].nic.mac1609_4 	ReceivedBroadcasts 	0
scalar IntersectionExampleScenario.node[25].nic.mac1609_4 	SentPackets 	0
scalar IntersectionExampleScenario.node[25].nic.mac1609_4 	SNIRLostPackets 	0
scalar IntersectionExampleScenario.node[25].nic.mac1609_4 	RXTXLostPackets 	0
scalar IntersectionExampleScenario.node[25].nic.mac1609_4 	TotalLostPackets 	0
scalar IntersectionExampleScenario.node[25].nic.mac1609_4 	DroppedPacketsInMac 	0
scalar IntersectionExampleScenario.node[25].nic.mac1609_4 	TooLittleTime 	0
scalar IntersectionExampleScenario.node[25].nic.mac1609_4 	TimesIntoBackoff 	0
scalar IntersectionExampleScenario.node[25].nic.mac1609_4 	SlotsBackoff 	0
scalar IntersectionExampleScenario.node[25].nic.mac1609_4 	NumInternalContention 	0
scalar IntersectionExampleScenario.node[25].nic.mac1609_4 	totalBusyTime 	0
scalar IntersectionExampleScenario.node[25].veinsmobility 	startTime 	69
scalar IntersectionExampleScenario.node[25].veinsmobility 	totalTime 	62
scalar IntersectionExampleScenario.node[25].veinsmobility 	stopTime 	131.25
scalar IntersectionExampleScenario.node[25].veinsmobility 	minSpeed 	0
scalar IntersectionExampleScenario.node[25].veinsmobility 	maxSpeed 	15.875
scalar IntersectionExampleScenario.node[25].veinsmobility 	totalDistance 	561.13139337994
scalar IntersectionExampleScenario.node[25].veinsmobility 	totalCO2Emission 	154.25419142661
scalar IntersectionExampleScenario.node[29].appl 	VehicleRemoved 	0
scalar IntersectionExampleScenario.node[29].appl 	ArrivedAtDest 	1
scalar IntersectionExampleScenario.node[29].appl 	IntersectionEnterTime 	77
scalar IntersectionExampleScenario.node[29].appl 	IntersectionExitTime 	116.79477183052
scalar IntersectionExampleScenario.node[29].appl 	NumberOfCollisions 	0
scalar IntersectionExampleScenario.node[29].nic.phy80211p 	busyTime 	0
scalar IntersectionExampleScenario.node[29].nic.mac1609_4 	ReceivedUnicastPackets 	0
scalar IntersectionExampleScenario.node[29].nic.mac1609_4 	ReceivedBroadcasts 	0
scalar IntersectionExampleScenario.node[29].nic.mac1609_4 	SentPackets 	0
scalar IntersectionExampleScenario.node[29].nic.mac1609_4 	SNIRLostPackets 	0
scalar IntersectionExampleScenario.node[29].nic.mac1609_4 	RXTXLostPackets 	0
scalar IntersectionExampleScenario.node[29].nic.mac1609_4 	TotalLostPackets 	0
scalar IntersectionExampleScenario.node[29].nic.mac1609_4 	DroppedPacketsInMac 	0
scalar IntersectionExampleScenario.node[29].nic.mac1609_4 	TooLittleTime 	0
scalar IntersectionExampleScenario.node[29].nic.mac1609_4 	TimesIntoBackoff 	0
scalar IntersectionExampleScenario.node[29].nic.mac1609_4 	SlotsBackoff 	0
scalar IntersectionExampleScenario.node[29].nic.mac1609_4 	NumInternalContention 	0
scalar IntersectionExampleScenario.node[29].nic.mac1609_4 	totalBusyTime 	0
scalar IntersectionExampleScenario.node[29].veinsmobility 	startTime 	77
scalar IntersectionExampleScenario.node[29].veinsmobility 	totalTime 	57.25
scalar IntersectionExampleScenario.node[29].veinsmobility 	stopTime 	134.5
scalar IntersectionExampleScenario.node[29].veinsmobility 	minSpeed 	0
scalar IntersectionExampleScenario.node[29].veinsmobility 	maxSpeed 	14.39999961853
scalar IntersectionExampleScenario.node[29].veinsmobility 	totalDistance 	554.8985748291
scalar IntersectionExampleScenario.node[29].veinsmobility 	totalCO2Emission 	132.73030886601
scalar IntersectionExampleScenario.node[22].appl 	VehicleRemoved 	0
scalar IntersectionExampleScenario.node[22].appl 	ArrivedAtDest 	1
scalar IntersectionExampleScenario.node[22].appl 	IntersectionEnterTime 	54
scalar IntersectionExampleScenario.node[22].appl 	IntersectionExitTime 	125.27182826027
scalar IntersectionExampleScenario.node[22].appl 	NumberOfCollisions 	0
scalar IntersectionExampleScenario.node[22].nic.phy80211p 	busyTime 	0
scalar IntersectionExampleScenario.node[22].nic.mac1609_4 	ReceivedUnicastPackets 	0
scalar IntersectionExampleScenario.node[22].nic.mac1609_4 	ReceivedBroadcasts 	0
scalar IntersectionExampleScenario.node[22].nic.mac1609_4 	SentPackets 	0
scalar IntersectionExampleScenario.node[22].nic.mac1609_4 	SNIRLostPackets 	0
scalar IntersectionExampleScenario.node[22].nic.mac1609_4 	RXTXLostPackets 	0
scalar IntersectionExampleScenario.node[22].nic.mac1609_4 	TotalLostPackets 	0
scalar IntersectionExampleScenario.node[22].nic.mac1609_4 	DroppedPacketsInMac 	0
scalar IntersectionExampleScenario.node[22].nic.mac1609_4 	TooLittleTime 	0
scalar IntersectionExampleScenario.node[22].nic.mac1609_4 	TimesIntoBackoff 	0
scalar IntersectionExampleScenario.node[22].nic.mac1609_4 	SlotsBackoff 	0
scalar IntersectionExampleScenario.node[22].nic.mac1609_4 	NumInternalContention 	0
scalar IntersectionExampleScenario.node[22].nic.mac1609_4 	totalBusyTime 	0
scalar IntersectionExampleScenario.node[22].veinsmobility 	startTime 	54
scalar IntersectionExampleScenario.node[22].veinsmobility 	totalTime 	87
scalar IntersectionExampleScenario.node[22].veinsmobility 	stopTime 	141.25
scalar IntersectionExampleScenario.node[22].veinsmobility 	minSpeed 	0
scalar IntersectionExampleScenario.node[22].veinsmobility 	maxSpeed 	16
scalar IntersectionExampleScenario.node[22].veinsmobility 	totalDistance 	553.16080474854
scalar IntersectionExampleScenario.node[22].veinsmobility 	totalCO2Emission 	187.46343609259
scalar IntersectionExampleScenario.node[26].appl 	VehicleRemoved 	0
scalar IntersectionExampleScenario.node[26].appl 	ArrivedAtDest 	1
scalar IntersectionExampleScenario.node[26].appl 	IntersectionEnterTime 	72.75
scalar IntersectionExampleScenario.node[26].appl 	IntersectionExitTime 	126.03163052924
scalar IntersectionExampleScenario.node[26].appl 	NumberOfCollisions 	0
scalar IntersectionExampleScenario.node[26].nic.phy80211p 	busyTime 	0
scalar IntersectionExampleScenario.node[26].nic.mac1609_4 	ReceivedUnicastPackets 	0
scalar IntersectionExampleScenario.node[26].nic.mac1609_4 	ReceivedBroadcasts 	0
scalar IntersectionExampleScenario.node[26].nic.mac1609_4 	SentPackets 	0
scalar IntersectionExampleScenario.node[26].nic.mac1609_4 	SNIRLostPackets 	0
scalar IntersectionExampleScenario.node[26].nic.mac1609_4 	RXTXLostPackets 	0
scalar IntersectionExampleScenario.node[26].nic.mac1609_4 	TotalLostPackets 	0
scalar IntersectionExampleScenario.node[26].nic.mac1609_4 	DroppedPacketsInMac 	0
scalar IntersectionExampleScenario.node[26].nic.mac1609_4 	TooLittleTime 	0
scalar IntersectionExampleScenario.node[26].nic.mac1609_4 	TimesIntoBackoff 	0
scalar IntersectionExampleScenario.node[26].nic.mac1609_4 	SlotsBackoff 	0
scalar IntersectionExampleScenario.node[26].nic.mac1609_4 	NumInternalContention 	0
scalar IntersectionExampleScenario.node[26].nic.mac1609_4 	totalBusyTime 	0
scalar IntersectionExampleScenario.node[26].veinsmobility 	startTime 	72.75
scalar IntersectionExampleScenario.node[26].veinsmobility 	totalTime 	70
scalar IntersectionExampleScenario.node[26].veinsmobility 	stopTime 	143
scalar IntersectionExampleScenario.node[26].veinsmobility 	minSpeed 	0
scalar IntersectionExampleScenario.node[26].veinsmobility 	maxSpeed 	15.64999961853
scalar IntersectionExampleScenario.node[26].veinsmobility 	totalDistance 	544.66803776807
scalar IntersectionExampleScenario.node[26].veinsmobility 	totalCO2Emission 	170.12451345037
scalar IntersectionExampleScenario.node[34].appl 	VehicleRemoved 	0
scalar IntersectionExampleScenario.node[34].appl 	ArrivedAtDest 	1
scalar IntersectionExampleScenario.node[34].appl 	IntersectionEnterTime 	95.75
scalar IntersectionExampleScenario.node[34].appl 	IntersectionExitTime 	128.865288573
scalar IntersectionExampleScenario.node[34].appl 	NumberOfCollisions 	0
scalar IntersectionExampleScenario.node[34].nic.phy80211p 	busyTime 	0
scalar IntersectionExampleScenario.node[34].nic.mac1609_4 	ReceivedUnicastPackets 	0
scalar IntersectionExampleScenario.node[34].nic.mac1609_4 	ReceivedBroadcasts 	0
scalar IntersectionExampleScenario.node[34].nic.mac1609_4 	SentPackets 	0
scalar IntersectionExampleScenario.node[34].nic.mac1609_4 	SNIRLostPackets 	0
scalar IntersectionExampleScenario.node[34].nic.mac1609_4 	RXTXLostPackets 	0
scalar IntersectionExampleScenario.node[34].nic.mac1609_4 	TotalLostPackets 	0
scalar IntersectionExampleScenario.node[34].nic.mac1609_4 	DroppedPacketsInMac 	0
scalar IntersectionExampleScenario.node[34].nic.mac1609_4 	TooLittleTime 	0
scalar IntersectionExampleScenario.node[34].nic.mac1609_4 	TimesIntoBackoff 	0
scalar IntersectionExampleScenario.node[34].nic.mac1609_4 	SlotsBackoff 	0
scalar IntersectionExampleScenario.node[34].nic.mac1609_4 	NumInternalContention 	0
scalar IntersectionExampleScenario.node[34].nic.mac1609_4 	totalBusyTime 	0
scalar IntersectionExampleScenario.node[34].veinsmobility 	startTime 	95.75
scalar IntersectionExampleScenario.node[34].veinsmobility 	totalTime 	48.75
scalar IntersectionExampleScenario.node[34].veinsmobility 	stopTime 	144.75
scalar IntersectionExampleScenario.node[34].veinsmobility 	minSpeed 	1.8095372915268
scalar IntersectionExampleScenario.node[34].veinsmobility 	maxSpeed 	16.27499961853
scalar IntersectionExampleScenario.node[34].veinsmobility 	totalDistance 	550.80767721334
scalar IntersectionExampleScenario.node[34].veinsmobility 	totalCO2Emission 	142.92017494016
scalar IntersectionExampleScenario.node[40].appl 	VehicleRemoved 	0
scalar IntersectionExampleScenario.node[40].appl 	ArrivedAtDest 	1
scalar IntersectionExampleScenario.node[40].appl 	IntersectionEnterTime 	107.25
scalar IntersectionExampleScenario.node[40].appl 	IntersectionExitTime 	131.35803024674
scalar IntersectionExampleScenario.node[40].appl 	NumberOfCollisions 	0
scalar IntersectionExampleScenario.node[40].nic.phy80211p 	busyTime 	0
scalar IntersectionExampleScenario.node[40].nic.mac1609_4 	ReceivedUnicastPackets 	0
scalar IntersectionExampleScenario.node[40].nic.mac1609_4 	ReceivedBroadcasts 	0
scalar IntersectionExampleScenario.node[40].nic.mac1609_4 	SentPackets 	0
scalar IntersectionExampleScenario.node[40].nic.mac1609_4 	SNIRLostPackets 	0
scalar IntersectionExampleScenario.node[40].nic.mac1609_4 	RXTXLostPackets 	0
scalar IntersectionExampleScenario.node[40].nic.mac1609_4 	TotalLostPackets 	0
scalar IntersectionExampleScenario.node[40].nic.mac1609_4 	DroppedPacketsInMac 	0
scalar IntersectionExampleScenario.node[40].nic.mac1609_4 	TooLittleTime 	0
scalar IntersectionExampleScenario.node[40].nic.mac1609_4 	TimesIntoBackoff 	0
scalar IntersectionExampleScenario.node[40].nic.mac1609_4 	SlotsBackoff 	0
scalar IntersectionExampleScenario.node[40].nic.mac1609_4 	NumInternalContention 	0
scalar IntersectionExampleScenario.node[40].nic.mac1609_4 	totalBusyTime 	0
scalar IntersectionExampleScenario.node[40].veinsmobility 	startTime 	107.25
scalar IntersectionExampleScenario.node[40].veinsmobility 	totalTime 	40.25
scalar IntersectionExampleScenario.node[40].veinsmobility 	stopTime 	147.75
scalar IntersectionExampleScenario.node[40].veinsmobility 	minSpeed 	5.6500000953674
scalar IntersectionExampleScenario.node[40].veinsmobility 	maxSpeed 	16.27499961853
scalar IntersectionExampleScenario.node[40].veinsmobility 	totalDistance 	515.08667959479
scalar IntersectionExampleScenario.node[40].veinsmobility 	totalCO2Emission 	137.73046579183
scalar IntersectionExampleScenario.node[37].appl 	VehicleRemoved 	0
scalar IntersectionExampleScenario.node[37].appl 	ArrivedAtDest 	1
scalar IntersectionExampleScenario.node[37].appl 	IntersectionEnterTime 	105.5
scalar IntersectionExampleScenario.node[37].appl 	IntersectionExitTime 	133.03681467078
scalar IntersectionExampleScenario.node[37].appl 	NumberOfCollisions 	0
scalar IntersectionExampleScenario.node[37].nic.phy80211p 	busyTime 	0
scalar IntersectionExampleScenario.node[37].nic.mac1609_4 	ReceivedUnicastPackets 	0
scalar IntersectionExampleScenario.node[37].nic.mac1609_4 	ReceivedBroadcasts 	0
scalar IntersectionExampleScenario.node[37].nic.mac1609_4 	SentPackets 	0
scalar IntersectionExampleScenario.node[37].nic.mac1609_4 	SNIRLostPackets 	0
scalar IntersectionExampleScenario.node[37].nic.mac1609_4 	RXTXLostPackets 	0
scalar IntersectionExampleScenario.node[37].nic.mac1609_4 	TotalLostPackets 	0
scalar IntersectionExampleScenario.node[37].nic.mac1609_4 	DroppedPacketsInMac 	0
scalar IntersectionExampleScenario.node[37].nic.mac1609_4 	TooLittleTime 	0
scalar IntersectionExampleScenario.node[37].nic.mac1609_4 	TimesIntoBackoff 	0
scalar IntersectionExampleScenario.node[37].nic.mac1609_4 	SlotsBackoff 	0
scalar IntersectionExampleScenario.node[37].nic.mac1609_4 	NumInternalContention 	0
scalar IntersectionExampleScenario.node[37].nic.mac1609_4 	totalBusyTime 	0
scalar IntersectionExampleScenario.node[37].veinsmobility 	startTime 	105.5
scalar IntersectionExampleScenario.node[37].veinsmobility 	totalTime 	44
scalar IntersectionExampleScenario.node[37].veinsmobility 	stopTime 	149.75
scalar IntersectionExampleScenario.node[37].veinsmobility 	minSpeed 	5.6500000953674
scalar IntersectionExampleScenario.node[37].veinsmobility 	maxSpeed 	14.907852172852
scalar IntersectionExampleScenario.node[37].veinsmobility 	totalDistance 	553.68650054932
scalar IntersectionExampleScenario.node[37].veinsmobility 	totalCO2Emission 	133.64705481936
scalar IntersectionExampleScenario.node[42].appl 	VehicleRemoved 	0
scalar IntersectionExampleScenario.node[42].appl 	ArrivedAtDest 	1
scalar IntersectionExampleScenario.node[42].appl 	IntersectionEnterTime 	108
scalar IntersectionExampleScenario.node[42].appl 	IntersectionExitTime 	136.81827550384
scalar IntersectionExampleScenario.node[42].appl 	NumberOfCollisions 	0
scalar IntersectionExampleScenario.node[42].nic.phy80211p 	busyTime 	0
scalar IntersectionExampleScenario.node[42].nic.mac1609_4 	ReceivedUnicastPackets 	0
scalar IntersectionExampleScenario.node[42].nic.mac1609_4 	ReceivedBroadcasts 	0
scalar IntersectionExampleScenario.node[42].nic.mac1609_4 	SentPackets 	0
scalar IntersectionExampleScenario.node[42].nic.mac1609_4 	SNIRLostPackets 	0
scalar IntersectionExampleScenario.node[42].nic.mac1609_4 	RXTXLostPackets 	0
scalar IntersectionExampleScenario.node[42].nic.mac1609_4 	TotalLostPackets 	0
scalar IntersectionExampleScenario.node[42].nic.mac1609_4 	DroppedPacketsInMac 	0
scalar IntersectionExampleScenario.node[42].nic.mac1609_4 	TooLittleTime 	0
scalar IntersectionExampleScenario.node[42].nic.mac1609_4 	TimesIntoBackoff 	0
scalar IntersectionExampleScenario.node[42].nic.mac1609_4 	SlotsBackoff 	0
scalar IntersectionExampleScenario.node[42].nic.mac1609_4 	NumInternalContention 	0
scalar IntersectionExampleScenario.node[42].nic.mac1609_4 	totalBusyTime 	0
scalar IntersectionExampleScenario.node[42].veinsmobility 	startTime 	108
scalar IntersectionExampleScenario.node[42].veinsmobility 	totalTime 	44
scalar IntersectionExampleScenario.node[42].veinsmobility 	stopTime 	152.25
scalar IntersectionExampleScenario.node[42].veinsmobility 	minSpeed 	5.6500000953674
scalar IntersectionExampleScenario.node[42].veinsmobility 	maxSpeed 	16.337408065796
scalar IntersectionExampleScenario.node[42].veinsmobility 	totalDistance 	581.8028793335
scalar IntersectionExampleScenario.node[42].veinsmobility 	totalCO2Emission 	134.2351608062
scalar IntersectionExampleScenario.node[38].appl 	VehicleRemoved 	0
scalar IntersectionExampleScenario.node[38].appl 	ArrivedAtDest 	1
scalar IntersectionExampleScenario.node[38].appl 	IntersectionEnterTime 	105.75
scalar IntersectionExampleScenario.node[38].appl 	IntersectionExitTime 	135.51536728462
scalar IntersectionExampleScenario.node[38].appl 	NumberOfCollisions 	0
scalar IntersectionExampleScenario.node[38].nic.phy80211p 	busyTime 	0
scalar IntersectionExampleScenario.node[38].nic.mac1609_4 	ReceivedUnicastPackets 	0
scalar IntersectionExampleScenario.node[38].nic.mac1609_4 	ReceivedBroadcasts 	0
scalar IntersectionExampleScenario.node[38].nic.mac1609_4 	SentPackets 	0
scalar IntersectionExampleScenario.node[38].nic.mac1609_4 	SNIRLostPackets 	0
scalar IntersectionExampleScenario.node[38].nic.mac1609_4 	RXTXLostPackets 	0
scalar IntersectionExampleScenario.node[38].nic.mac1609_4 	TotalLostPackets 	0
scalar IntersectionExampleScenario.node[38].nic.mac1609_4 	DroppedPacketsInMac 	0
scalar IntersectionExampleScenario.node[38].nic.mac1609_4 	TooLittleTime 	0
scalar IntersectionExampleScenario.node[38].nic.mac1609_4 	TimesIntoBackoff 	0
scalar IntersectionExampleScenario.node[38].nic.mac1609_4 	SlotsBackoff 	0
scalar IntersectionExampleScenario.node[38].nic.mac1609_4 	NumInternalContention 	0
scalar IntersectionExampleScenario.node[38].nic.mac1609_4 	totalBusyTime 	0
scalar IntersectionExampleScenario.node[38].veinsmobility 	startTime 	105.75
scalar IntersectionExampleScenario.node[38].veinsmobility 	totalTime 	47.5
scalar IntersectionExampleScenario.node[38].veinsmobility 	stopTime 	153.5
scalar IntersectionExampleScenario.node[38].veinsmobility 	minSpeed 	5.6500000953674
scalar IntersectionExampleScenario.node[38].veinsmobility 	maxSpeed 	14.625
scalar IntersectionExampleScenario.node[38].veinsmobility 	totalDistance 	570.28254354246
scalar IntersectionExampleScenario.node[38].veinsmobility 	totalCO2Emission 	136.58029308196
scalar IntersectionExampleScenario.node[31].appl 	VehicleRemoved 	0
scalar IntersectionExampleScenario.node[31].appl 	ArrivedAtDest 	1
scalar IntersectionExampleScenario.node[31].appl 	IntersectionEnterTime 	88
scalar IntersectionExampleScenario.node[31].appl 	IntersectionExitTime 	138.54109240894
scalar IntersectionExampleScenario.node[31].appl 	NumberOfCollisions 	0
scalar IntersectionExampleScenario.node[31].nic.phy80211p 	busyTime 	0
scalar IntersectionExampleScenario.node[31].nic.mac1609_4 	ReceivedUnicastPackets 	0
scalar IntersectionExampleScenario.node[31].nic.mac1609_4 	ReceivedBroadcasts 	0
scalar IntersectionExampleScenario.node[31].nic.mac1609_4 	SentPackets 	0
scalar IntersectionExampleScenario.node[31].nic.mac1609_4 	SNIRLostPackets 	0
scalar IntersectionExampleScenario.node[31].nic.mac1609_4 	RXTXLostPackets 	0
scalar IntersectionExampleScenario.node[31].nic.mac1609_4 	TotalLostPackets 	0
scalar IntersectionExampleScenario.node[31].nic.mac1609_4 	DroppedPacketsInMac 	0
scalar IntersectionExampleScenario.node[31].nic.mac1609_4 	TooLittleTime 	0
scalar IntersectionExampleScenario.node[31].nic.mac1609_4 	TimesIntoBackoff 	0
scalar IntersectionExampleScenario.node[31].nic.mac1609_4 	SlotsBackoff 	0
scalar IntersectionExampleScenario.node[31].nic.mac1609_4 	NumInternalContention 	0
scalar IntersectionExampleScenario.node[31].nic.mac1609_4 	totalBusyTime 	0
scalar IntersectionExampleScenario.node[31].veinsmobility 	startTime 	88
scalar IntersectionExampleScenario.node[31].veinsmobility 	totalTime 	66.5
scalar IntersectionExampleScenario.node[31].veinsmobility 	stopTime 	154.75
scalar IntersectionExampleScenario.node[31].veinsmobility 	minSpeed 	0
scalar IntersectionExampleScenario.node[31].veinsmobility 	maxSpeed 	16.5
scalar IntersectionExampleScenario.node[31].veinsmobility 	totalDistance 	545.42075253875
scalar IntersectionExampleScenario.node[31].veinsmobility 	totalCO2Emission 	166.66070424675
scalar IntersectionExampleScenario.node[32].appl 	VehicleRemoved 	0
scalar IntersectionExampleScenario.node[32].appl 	ArrivedAtDest 	1
scalar IntersectionExampleScenario.node[32].appl 	IntersectionEnterTime 	89.75
scalar IntersectionExampleScenario.node[32].appl 	IntersectionExitTime 	139.33693572215
scalar IntersectionExampleScenario.node[32].appl 	NumberOfCollisions 	0
scalar IntersectionExampleScenario.node[32].nic.phy80211p 	busyTime 	0
scalar IntersectionExampleScenario.node[32].nic.mac1609_4 	ReceivedUnicastPackets 	0
scalar IntersectionExampleScenario.node[32].nic.mac1609_4 	ReceivedBroadcasts 	0
scalar IntersectionExampleScenario.node[32].nic.mac1609_4 	SentPackets 	0
scalar IntersectionExampleScenario.node[32].nic.mac1609_4 	SNIRLostPackets 	0
scalar IntersectionExampleScenario.node[32].nic.mac1609_4 	RXTXLostPackets 	0
scalar IntersectionExampleScenario.node[32].nic.mac1609_4 	TotalLostPackets 	0
scalar IntersectionExampleScenario.node[32].nic.mac1609_4 	DroppedPacketsInMac 	0
scalar IntersectionExampleScenario.node[32].nic.mac1609_4 	TooLittleTime 	0
scalar IntersectionExampleScenario.node[32].nic.mac1609_4 	TimesIntoBackoff 	0
scalar IntersectionExampleScenario.node[32].nic.mac1609_4 	SlotsBackoff 	0
scalar IntersectionExampleScenario.node[32].nic.mac1609_4 	NumInternalContention 	0
scalar IntersectionExampleScenario.node[32].nic.mac1609_4 	totalBusyTime 	0
scalar IntersectionExampleScenario.node[32].veinsmobility 	startTime 	89.75
scalar IntersectionExampleScenario.node[32].veinsmobility 	totalTime 	65
scalar IntersectionExampleScenario.node[32].veinsmobility 	stopTime 	155
scalar IntersectionExampleScenario.node[32].veinsmobility 	minSpeed 	0
scalar IntersectionExampleScenario.node[32].veinsmobility 	maxSpeed 	16
scalar IntersectionExampleScenario.node[32].veinsmobility 	totalDistance 	551.43729400635
scalar IntersectionExampleScenario.node[32].veinsmobility 	totalCO2Emission 	160.67888461014
scalar IntersectionExampleScenario.node[35].appl 	VehicleRemoved 	0
scalar IntersectionExampleScenario.node[35].appl 	ArrivedAtDest 	1
scalar IntersectionExampleScenario.node[35].appl 	IntersectionEnterTime 	101
scalar IntersectionExampleScenario.node[35].appl 	IntersectionExitTime 	140.33282435962
scalar IntersectionExampleScenario.node[35].appl 	NumberOfCollisions 	0
scalar IntersectionExampleScenario.node[35].nic.phy80211p 	busyTime 	0
scalar IntersectionExampleScenario.node[35].nic.mac1609_4 	ReceivedUnicastPackets 	0
scalar IntersectionExampleScenario.node[35].nic.mac1609_4 	ReceivedBroadcasts 	0
scalar IntersectionExampleScenario.node[35].nic.mac1609_4 	SentPackets 	0
scalar IntersectionExampleScenario.node[35].nic.mac1609_4 	SNIRLostPackets 	0
scalar IntersectionExampleScenario.node[35].nic.mac1609_4 	RXTXLostPackets 	0
scalar IntersectionExampleScenario.node[35].nic.mac1609_4 	TotalLostPackets 	0
scalar IntersectionExampleScenario.node[35].nic.mac1609_4 	DroppedPacketsInMac 	0
scalar IntersectionExampleScenario.node[35].nic.mac1609_4 	TooLittleTime 	0
scalar IntersectionExampleScenario.node[35].nic.mac1609_4 	TimesIntoBackoff 	0
scalar IntersectionExampleScenario.node[35].nic.mac1609_4 	SlotsBackoff 	0
scalar IntersectionExampleScenario.node[35].nic.mac1609_4 	NumInternalContention 	0
scalar IntersectionExampleScenario.node[35].nic.mac1609_4 	totalBusyTime 	0
scalar IntersectionExampleScenario.node[35].veinsmobility 	startTime 	101
scalar IntersectionExampleScenario.node[35].veinsmobility 	totalTime 	55.75
scalar IntersectionExampleScenario.node[35].veinsmobility 	stopTime 	157
scalar IntersectionExampleScenario.node[35].veinsmobility 	minSpeed 	0
scalar IntersectionExampleScenario.node[35].veinsmobility 	maxSpeed 	15.02499961853
scalar IntersectionExampleScenario.node[35].veinsmobility 	totalDistance 	554.6089630127
scalar IntersectionExampleScenario.node[35].veinsmobility 	totalCO2Emission 	142.99714476501
scalar IntersectionExampleScenario.node[33].appl 	VehicleRemoved 	0
scalar IntersectionExampleScenario.node[33].appl 	ArrivedAtDest 	1
scalar IntersectionExampleScenario.node[33].appl 	IntersectionEnterTime 	92.5
scalar IntersectionExampleScenario.node[33].appl 	IntersectionExitTime 	142.10548512603
scalar IntersectionExampleScenario.node[33].appl 	NumberOfCollisions 	0
scalar IntersectionExampleScenario.node[33].nic.phy80211p 	busyTime 	0
scalar IntersectionExampleScenario.node[33].nic.mac1609_4 	ReceivedUnicastPackets 	0
scalar IntersectionExampleScenario.node[33].nic.mac1609_4 	ReceivedBroadcasts 	0
scalar IntersectionExampleScenario.node[33].nic.mac1609_4 	SentPackets 	0
scalar IntersectionExampleScenario.node[33].nic.mac1609_4 	SNIRLostPackets 	0
scalar IntersectionExampleScenario.node[33].nic.mac1609_4 	RXTXLostPackets 	0
scalar IntersectionExampleScenario.node[33].nic.mac1609_4 	TotalLostPackets 	0
scalar IntersectionExampleScenario.node[33].nic.mac1609_4 	DroppedPacketsInMac 	0
scalar IntersectionExampleScenario.node[33].nic.mac1609_4 	TooLittleTime 	0
scalar IntersectionExampleScenario.node[33].nic.mac1609_4 	TimesIntoBackoff 	0
scalar IntersectionExampleScenario.node[33].nic.mac1609_4 	SlotsBackoff 	0
scalar IntersectionExampleScenario.node[33].nic.mac1609_4 	NumInternalContention 	0
[...]
scalar IntersectionExampleScenario.node[547].veinsmobility 	totalDistance 	218.32498931885
scalar IntersectionExampleScenario.node[547].veinsmobility 	totalCO2Emission 	57.732877943787
scalar IntersectionExampleScenario.node[548].appl 	VehicleRemoved 	0
scalar IntersectionExampleScenario.node[548].appl 	ArrivedAtDest 	0
scalar IntersectionExampleScenario.node[548].appl 	IntersectionEnterTime 	1785.5
scalar IntersectionExampleScenario.node[548].appl 	IntersectionExitTime 	-1
scalar IntersectionExampleScenario.node[548].appl 	NumberOfCollisions 	0
scalar IntersectionExampleScenario.node[548].nic.phy80211p 	busyTime 	0
scalar IntersectionExampleScenario.node[548].nic.mac1609_4 	ReceivedUnicastPackets 	0
scalar IntersectionExampleScenario.node[548].nic.mac1609_4 	ReceivedBroadcasts 	0
scalar IntersectionExampleScenario.node[548].nic.mac1609_4 	SentPackets 	0
scalar IntersectionExampleScenario.node[548].nic.mac1609_4 	SNIRLostPackets 	0
scalar IntersectionExampleScenario.node[548].nic.mac1609_4 	RXTXLostPackets 	0
scalar IntersectionExampleScenario.node[548].nic.mac1609_4 	TotalLostPackets 	0
scalar IntersectionExampleScenario.node[548].nic.mac1609_4 	DroppedPacketsInMac 	0
scalar IntersectionExampleScenario.node[548].nic.mac1609_4 	TooLittleTime 	0
scalar IntersectionExampleScenario.node[548].nic.mac1609_4 	TimesIntoBackoff 	0
scalar IntersectionExampleScenario.node[548].nic.mac1609_4 	SlotsBackoff 	0
scalar IntersectionExampleScenario.node[548].nic.mac1609_4 	NumInternalContention 	0
scalar IntersectionExampleScenario.node[548].nic.mac1609_4 	totalBusyTime 	0
scalar IntersectionExampleScenario.node[548].veinsmobility 	startTime 	1785.5
scalar IntersectionExampleScenario.node[548].veinsmobility 	totalTime 	14.5
scalar IntersectionExampleScenario.node[548].veinsmobility 	stopTime 	1800
scalar IntersectionExampleScenario.node[548].veinsmobility 	minSpeed 	5.6500000953674
scalar IntersectionExampleScenario.node[548].veinsmobility 	maxSpeed 	15.3755235672
scalar IntersectionExampleScenario.node[548].veinsmobility 	totalDistance 	200.83569335938
scalar IntersectionExampleScenario.node[548].veinsmobility 	totalCO2Emission 	54.254863167935
scalar IntersectionExampleScenario.node[549].appl 	VehicleRemoved 	0
scalar IntersectionExampleScenario.node[549].appl 	ArrivedAtDest 	0
scalar IntersectionExampleScenario.node[549].appl 	IntersectionEnterTime 	1787.5
scalar IntersectionExampleScenario.node[549].appl 	IntersectionExitTime 	-1
scalar IntersectionExampleScenario.node[549].appl 	NumberOfCollisions 	0
scalar IntersectionExampleScenario.node[549].nic.phy80211p 	busyTime 	0
scalar IntersectionExampleScenario.node[549].nic.mac1609_4 	ReceivedUnicastPackets 	0
scalar IntersectionExampleScenario.node[549].nic.mac1609_4 	ReceivedBroadcasts 	0
scalar IntersectionExampleScenario.node[549].nic.mac1609_4 	SentPackets 	0
scalar IntersectionExampleScenario.node[549].nic.mac1609_4 	SNIRLostPackets 	0
scalar IntersectionExampleScenario.node[549].nic.mac1609_4 	RXTXLostPackets 	0
scalar IntersectionExampleScenario.node[549].nic.mac1609_4 	TotalLostPackets 	0
scalar IntersectionExampleScenario.node[549].nic.mac1609_4 	DroppedPacketsInMac 	0
scalar IntersectionExampleScenario.node[549].nic.mac1609_4 	TooLittleTime 	0
scalar IntersectionExampleScenario.node[549].nic.mac1609_4 	TimesIntoBackoff 	0
scalar IntersectionExampleScenario.node[549].nic.mac1609_4 	SlotsBackoff 	0
scalar IntersectionExampleScenario.node[549].nic.mac1609_4 	NumInternalContention 	0
scalar IntersectionExampleScenario.node[549].nic.mac1609_4 	totalBusyTime 	0
scalar IntersectionExampleScenario.node[549].veinsmobility 	startTime 	1787.5
scalar IntersectionExampleScenario.node[549].veinsmobility 	totalTime 	12.5
scalar IntersectionExampleScenario.node[549].veinsmobility 	stopTime 	1800
scalar IntersectionExampleScenario.node[549].veinsmobility 	minSpeed 	5.6500000953674
scalar IntersectionExampleScenario.node[549].veinsmobility 	maxSpeed 	15.02499961853
scalar IntersectionExampleScenario.node[549].veinsmobility 	totalDistance 	166.82067871094
scalar IntersectionExampleScenario.node[549].veinsmobility 	totalCO2Emission 	48.334034906113
scalar IntersectionExampleScenario.node[550].appl 	VehicleRemoved 	0
scalar IntersectionExampleScenario.node[550].appl 	ArrivedAtDest 	0
scalar IntersectionExampleScenario.node[550].appl 	IntersectionEnterTime 	1789.5
scalar IntersectionExampleScenario.node[550].appl 	IntersectionExitTime 	-1
scalar IntersectionExampleScenario.node[550].appl 	NumberOfCollisions 	0
scalar IntersectionExampleScenario.node[550].nic.phy80211p 	busyTime 	0
scalar IntersectionExampleScenario.node[550].nic.mac1609_4 	ReceivedUnicastPackets 	0
scalar IntersectionExampleScenario.node[550].nic.mac1609_4 	ReceivedBroadcasts 	0
scalar IntersectionExampleScenario.node[550].nic.mac1609_4 	SentPackets 	0
scalar IntersectionExampleScenario.node[550].nic.mac1609_4 	SNIRLostPackets 	0
scalar IntersectionExampleScenario.node[550].nic.mac1609_4 	RXTXLostPackets 	0
scalar IntersectionExampleScenario.node[550].nic.mac1609_4 	TotalLostPackets 	0
scalar IntersectionExampleScenario.node[550].nic.mac1609_4 	DroppedPacketsInMac 	0
scalar IntersectionExampleScenario.node[550].nic.mac1609_4 	TooLittleTime 	0
scalar IntersectionExampleScenario.node[550].nic.mac1609_4 	TimesIntoBackoff 	0
scalar IntersectionExampleScenario.node[550].nic.mac1609_4 	SlotsBackoff 	0
scalar IntersectionExampleScenario.node[550].nic.mac1609_4 	NumInternalContention 	0
scalar IntersectionExampleScenario.node[550].nic.mac1609_4 	totalBusyTime 	0
scalar IntersectionExampleScenario.node[550].veinsmobility 	startTime 	1789.5
scalar IntersectionExampleScenario.node[550].veinsmobility 	totalTime 	10.5
scalar IntersectionExampleScenario.node[550].veinsmobility 	stopTime 	1800
scalar IntersectionExampleScenario.node[550].veinsmobility 	minSpeed 	5.6500000953674
scalar IntersectionExampleScenario.node[550].veinsmobility 	maxSpeed 	15.239130020142
scalar IntersectionExampleScenario.node[550].veinsmobility 	totalDistance 	138.84649658203
scalar IntersectionExampleScenario.node[550].veinsmobility 	totalCO2Emission 	45.350508984646
scalar IntersectionExampleScenario.node[551].appl 	VehicleRemoved 	0
scalar IntersectionExampleScenario.node[551].appl 	ArrivedAtDest 	0
scalar IntersectionExampleScenario.node[551].appl 	IntersectionEnterTime 	1791.25
scalar IntersectionExampleScenario.node[551].appl 	IntersectionExitTime 	-1
scalar IntersectionExampleScenario.node[551].appl 	NumberOfCollisions 	0
scalar IntersectionExampleScenario.node[551].nic.phy80211p 	busyTime 	0
scalar IntersectionExampleScenario.node[551].nic.mac1609_4 	ReceivedUnicastPackets 	0
scalar IntersectionExampleScenario.node[551].nic.mac1609_4 	ReceivedBroadcasts 	0
scalar IntersectionExampleScenario.node[551].nic.mac1609_4 	SentPackets 	0
scalar IntersectionExampleScenario.node[551].nic.mac1609_4 	SNIRLostPackets 	0
scalar IntersectionExampleScenario.node[551].nic.mac1609_4 	RXTXLostPackets 	0
scalar IntersectionExampleScenario.node[551].nic.mac1609_4 	TotalLostPackets 	0
scalar IntersectionExampleScenario.node[551].nic.mac1609_4 	DroppedPacketsInMac 	0
scalar IntersectionExampleScenario.node[551].nic.mac1609_4 	TooLittleTime 	0
scalar IntersectionExampleScenario.node[551].nic.mac1609_4 	TimesIntoBackoff 	0
scalar IntersectionExampleScenario.node[551].nic.mac1609_4 	SlotsBackoff 	0
scalar IntersectionExampleScenario.node[551].nic.mac1609_4 	NumInternalContention 	0
scalar IntersectionExampleScenario.node[551].nic.mac1609_4 	totalBusyTime 	0
scalar IntersectionExampleScenario.node[551].veinsmobility 	startTime 	1791.25
scalar IntersectionExampleScenario.node[551].veinsmobility 	totalTime 	8.75
scalar IntersectionExampleScenario.node[551].veinsmobility 	stopTime 	1800
scalar IntersectionExampleScenario.node[551].veinsmobility 	minSpeed 	5.6500000953674
scalar IntersectionExampleScenario.node[551].veinsmobility 	maxSpeed 	15.64999961853
scalar IntersectionExampleScenario.node[551].veinsmobility 	totalDistance 	112.98133087158
scalar IntersectionExampleScenario.node[551].veinsmobility 	totalCO2Emission 	42.051057972437
scalar IntersectionExampleScenario.node[552].appl 	VehicleRemoved 	0
scalar IntersectionExampleScenario.node[552].appl 	ArrivedAtDest 	0
scalar IntersectionExampleScenario.node[552].appl 	IntersectionEnterTime 	1793
scalar IntersectionExampleScenario.node[552].appl 	IntersectionExitTime 	-1
scalar IntersectionExampleScenario.node[552].appl 	NumberOfCollisions 	0
scalar IntersectionExampleScenario.node[552].nic.phy80211p 	busyTime 	0
scalar IntersectionExampleScenario.node[552].nic.mac1609_4 	ReceivedUnicastPackets 	0
scalar IntersectionExampleScenario.node[552].nic.mac1609_4 	ReceivedBroadcasts 	0
scalar IntersectionExampleScenario.node[552].nic.mac1609_4 	SentPackets 	0
scalar IntersectionExampleScenario.node[552].nic.mac1609_4 	SNIRLostPackets 	0
scalar IntersectionExampleScenario.node[552].nic.mac1609_4 	RXTXLostPackets 	0
scalar IntersectionExampleScenario.node[552].nic.mac1609_4 	TotalLostPackets 	0
scalar IntersectionExampleScenario.node[552].nic.mac1609_4 	DroppedPacketsInMac 	0
scalar IntersectionExampleScenario.node[552].nic.mac1609_4 	TooLittleTime 	0
scalar IntersectionExampleScenario.node[552].nic.mac1609_4 	TimesIntoBackoff 	0
scalar IntersectionExampleScenario.node[552].nic.mac1609_4 	SlotsBackoff 	0
scalar IntersectionExampleScenario.node[552].nic.mac1609_4 	NumInternalContention 	0
scalar IntersectionExampleScenario.node[552].nic.mac1609_4 	totalBusyTime 	0
scalar IntersectionExampleScenario.node[552].veinsmobility 	startTime 	1793
scalar IntersectionExampleScenario.node[552].veinsmobility 	totalTime 	7
scalar IntersectionExampleScenario.node[552].veinsmobility 	stopTime 	1800
scalar IntersectionExampleScenario.node[552].veinsmobility 	minSpeed 	5.6500000953674
scalar IntersectionExampleScenario.node[552].veinsmobility 	maxSpeed 	15.723104476929
scalar IntersectionExampleScenario.node[552].veinsmobility 	totalDistance 	87.063354492188
scalar IntersectionExampleScenario.node[552].veinsmobility 	totalCO2Emission 	39.726053341609
scalar IntersectionExampleScenario.node[553].appl 	VehicleRemoved 	0
scalar IntersectionExampleScenario.node[553].appl 	ArrivedAtDest 	0
scalar IntersectionExampleScenario.node[553].appl 	IntersectionEnterTime 	1796
scalar IntersectionExampleScenario.node[553].appl 	IntersectionExitTime 	-1
scalar IntersectionExampleScenario.node[553].appl 	NumberOfCollisions 	0
scalar IntersectionExampleScenario.node[553].nic.phy80211p 	busyTime 	0
scalar IntersectionExampleScenario.node[553].nic.mac1609_4 	ReceivedUnicastPackets 	0
scalar IntersectionExampleScenario.node[553].nic.mac1609_4 	ReceivedBroadcasts 	0
scalar IntersectionExampleScenario.node[553].nic.mac1609_4 	SentPackets 	0
scalar IntersectionExampleScenario.node[553].nic.mac1609_4 	SNIRLostPackets 	0
scalar IntersectionExampleScenario.node[553].nic.mac1609_4 	RXTXLostPackets 	0
scalar IntersectionExampleScenario.node[553].nic.mac1609_4 	TotalLostPackets 	0
scalar IntersectionExampleScenario.node[553].nic.mac1609_4 	DroppedPacketsInMac 	0
scalar IntersectionExampleScenario.node[553].nic.mac1609_4 	TooLittleTime 	0
scalar IntersectionExampleScenario.node[553].nic.mac1609_4 	TimesIntoBackoff 	0
scalar IntersectionExampleScenario.node[553].nic.mac1609_4 	SlotsBackoff 	0
scalar IntersectionExampleScenario.node[553].nic.mac1609_4 	NumInternalContention 	0
scalar IntersectionExampleScenario.node[553].nic.mac1609_4 	totalBusyTime 	0
scalar IntersectionExampleScenario.node[553].veinsmobility 	startTime 	1796
scalar IntersectionExampleScenario.node[553].veinsmobility 	totalTime 	4
scalar IntersectionExampleScenario.node[553].veinsmobility 	stopTime 	1800
scalar IntersectionExampleScenario.node[553].veinsmobility 	minSpeed 	5.6500000953674
scalar IntersectionExampleScenario.node[553].veinsmobility 	maxSpeed 	15.02499961853
scalar IntersectionExampleScenario.node[553].veinsmobility 	totalDistance 	40.099990844727
scalar IntersectionExampleScenario.node[553].veinsmobility 	totalCO2Emission 	30.650591168342
scalar IntersectionExampleScenario.node[554].appl 	VehicleRemoved 	0
scalar IntersectionExampleScenario.node[554].appl 	ArrivedAtDest 	0
scalar IntersectionExampleScenario.node[554].appl 	IntersectionEnterTime 	1796
scalar IntersectionExampleScenario.node[554].appl 	IntersectionExitTime 	-1
scalar IntersectionExampleScenario.node[554].appl 	NumberOfCollisions 	0
scalar IntersectionExampleScenario.node[554].nic.phy80211p 	busyTime 	0
scalar IntersectionExampleScenario.node[554].nic.mac1609_4 	ReceivedUnicastPackets 	0
scalar IntersectionExampleScenario.node[554].nic.mac1609_4 	ReceivedBroadcasts 	0
scalar IntersectionExampleScenario.node[554].nic.mac1609_4 	SentPackets 	0
scalar IntersectionExampleScenario.node[554].nic.mac1609_4 	SNIRLostPackets 	0
scalar IntersectionExampleScenario.node[554].nic.mac1609_4 	RXTXLostPackets 	0
scalar IntersectionExampleScenario.node[554].nic.mac1609_4 	TotalLostPackets 	0
scalar IntersectionExampleScenario.node[554].nic.mac1609_4 	DroppedPacketsInMac 	0
scalar IntersectionExampleScenario.node[554].nic.mac1609_4 	TooLittleTime 	0
scalar IntersectionExampleScenario.node[554].nic.mac1609_4 	TimesIntoBackoff 	0
scalar IntersectionExampleScenario.node[554].nic.mac1609_4 	SlotsBackoff 	0
scalar IntersectionExampleScenario.node[554].nic.mac1609_4 	NumInternalContention 	0
scalar IntersectionExampleScenario.node[554].nic.mac1609_4 	totalBusyTime 	0
scalar IntersectionExampleScenario.node[554].veinsmobility 	startTime 	1796
scalar IntersectionExampleScenario.node[554].veinsmobility 	totalTime 	4
scalar IntersectionExampleScenario.node[554].veinsmobility 	stopTime 	1800
scalar IntersectionExampleScenario.node[554].veinsmobility 	minSpeed 	5.6500000953674
scalar IntersectionExampleScenario.node[554].veinsmobility 	maxSpeed 	9.1027765274048
scalar IntersectionExampleScenario.node[554].veinsmobility 	totalDistance 	30.490539550781
scalar IntersectionExampleScenario.node[554].veinsmobility 	totalCO2Emission 	13.397457285593
scalar IntersectionExampleScenario.node[555].appl 	VehicleRemoved 	0
scalar IntersectionExampleScenario.node[555].appl 	ArrivedAtDest 	0
scalar IntersectionExampleScenario.node[555].appl 	IntersectionEnterTime 	1797
scalar IntersectionExampleScenario.node[555].appl 	IntersectionExitTime 	-1
scalar IntersectionExampleScenario.node[555].appl 	NumberOfCollisions 	0
scalar IntersectionExampleScenario.node[555].nic.phy80211p 	busyTime 	0
scalar IntersectionExampleScenario.node[555].nic.mac1609_4 	ReceivedUnicastPackets 	0
scalar IntersectionExampleScenario.node[555].nic.mac1609_4 	ReceivedBroadcasts 	0
scalar IntersectionExampleScenario.node[555].nic.mac1609_4 	SentPackets 	0
scalar IntersectionExampleScenario.node[555].nic.mac1609_4 	SNIRLostPackets 	0
scalar IntersectionExampleScenario.node[555].nic.mac1609_4 	RXTXLostPackets 	0
scalar IntersectionExampleScenario.node[555].nic.mac1609_4 	TotalLostPackets 	0
scalar IntersectionExampleScenario.node[555].nic.mac1609_4 	DroppedPacketsInMac 	0
scalar IntersectionExampleScenario.node[555].nic.mac1609_4 	TooLittleTime 	0
scalar IntersectionExampleScenario.node[555].nic.mac1609_4 	TimesIntoBackoff 	0
scalar IntersectionExampleScenario.node[555].nic.mac1609_4 	SlotsBackoff 	0
scalar IntersectionExampleScenario.node[555].nic.mac1609_4 	NumInternalContention 	0
scalar IntersectionExampleScenario.node[555].nic.mac1609_4 	totalBusyTime 	0
scalar IntersectionExampleScenario.node[555].veinsmobility 	startTime 	1797
scalar IntersectionExampleScenario.node[555].veinsmobility 	totalTime 	3
scalar IntersectionExampleScenario.node[555].veinsmobility 	stopTime 	1800
scalar IntersectionExampleScenario.node[555].veinsmobility 	minSpeed 	5.6500000953674
scalar IntersectionExampleScenario.node[555].veinsmobility 	maxSpeed 	11.65990447998
scalar IntersectionExampleScenario.node[555].veinsmobility 	totalDistance 	26.077461242676
scalar IntersectionExampleScenario.node[555].veinsmobility 	totalCO2Emission 	17.479392631508
scalar IntersectionExampleScenario.node[556].appl 	VehicleRemoved 	0
scalar IntersectionExampleScenario.node[556].appl 	ArrivedAtDest 	0
scalar IntersectionExampleScenario.node[556].appl 	IntersectionEnterTime 	1797.25
scalar IntersectionExampleScenario.node[556].appl 	IntersectionExitTime 	-1
scalar IntersectionExampleScenario.node[556].appl 	NumberOfCollisions 	0
scalar IntersectionExampleScenario.node[556].nic.phy80211p 	busyTime 	0
scalar IntersectionExampleScenario.node[556].nic.mac1609_4 	ReceivedUnicastPackets 	0
scalar IntersectionExampleScenario.node[556].nic.mac1609_4 	ReceivedBroadcasts 	0
scalar IntersectionExampleScenario.node[556].nic.mac1609_4 	SentPackets 	0
scalar IntersectionExampleScenario.node[556].nic.mac1609_4 	SNIRLostPackets 	0
scalar IntersectionExampleScenario.node[556].nic.mac1609_4 	RXTXLostPackets 	0
scalar IntersectionExampleScenario.node[556].nic.mac1609_4 	TotalLostPackets 	0
scalar IntersectionExampleScenario.node[556].nic.mac1609_4 	DroppedPacketsInMac 	0
scalar IntersectionExampleScenario.node[556].nic.mac1609_4 	TooLittleTime 	0
scalar IntersectionExampleScenario.node[556].nic.mac1609_4 	TimesIntoBackoff 	0
scalar IntersectionExampleScenario.node[556].nic.mac1609_4 	SlotsBackoff 	0
scalar IntersectionExampleScenario.node[556].nic.mac1609_4 	NumInternalContention 	0
scalar IntersectionExampleScenario.node[556].nic.mac1609_4 	totalBusyTime 	0
scalar IntersectionExampleScenario.node[556].veinsmobility 	startTime 	1797.25
scalar IntersectionExampleScenario.node[556].veinsmobility 	totalTime 	2.75
scalar IntersectionExampleScenario.node[556].veinsmobility 	stopTime 	1800
scalar IntersectionExampleScenario.node[556].veinsmobility 	minSpeed 	5.6500000953674
scalar IntersectionExampleScenario.node[556].veinsmobility 	maxSpeed 	11.89999961853
scalar IntersectionExampleScenario.node[556].veinsmobility 	totalDistance 	23.271850585938
scalar IntersectionExampleScenario.node[556].veinsmobility 	totalCO2Emission 	17.752607434053
scalar IntersectionExampleScenario.node[557].appl 	VehicleRemoved 	0
scalar IntersectionExampleScenario.node[557].appl 	ArrivedAtDest 	0
scalar IntersectionExampleScenario.node[557].appl 	IntersectionEnterTime 	1799.75
scalar IntersectionExampleScenario.node[557].appl 	IntersectionExitTime 	-1
scalar IntersectionExampleScenario.node[557].appl 	NumberOfCollisions 	0
scalar IntersectionExampleScenario.node[557].nic.phy80211p 	busyTime 	0
scalar IntersectionExampleScenario.node[557].nic.mac1609_4 	ReceivedUnicastPackets 	0
scalar IntersectionExampleScenario.node[557].nic.mac1609_4 	ReceivedBroadcasts 	0
scalar IntersectionExampleScenario.node[557].nic.mac1609_4 	SentPackets 	0
scalar IntersectionExampleScenario.node[557].nic.mac1609_4 	SNIRLostPackets 	0
scalar IntersectionExampleScenario.node[557].nic.mac1609_4 	RXTXLostPackets 	0
scalar IntersectionExampleScenario.node[557].nic.mac1609_4 	TotalLostPackets 	0
scalar IntersectionExampleScenario.node[557].nic.mac1609_4 	DroppedPacketsInMac 	0
scalar IntersectionExampleScenario.node[557].nic.mac1609_4 	TooLittleTime 	0
scalar IntersectionExampleScenario.node[557].nic.mac1609_4 	TimesIntoBackoff 	0
scalar IntersectionExampleScenario.node[557].nic.mac1609_4 	SlotsBackoff 	0
scalar IntersectionExampleScenario.node[557].nic.mac1609_4 	NumInternalContention 	0
scalar IntersectionExampleScenario.node[557].nic.mac1609_4 	totalBusyTime 	0
scalar IntersectionExampleScenario.node[557].veinsmobility 	startTime 	1799.75
scalar IntersectionExampleScenario.node[557].veinsmobility 	totalTime 	0.25
scalar IntersectionExampleScenario.node[557].veinsmobility 	stopTime 	1800
scalar IntersectionExampleScenario.node[557].veinsmobility 	minSpeed 	5.6500000953674
scalar IntersectionExampleScenario.node[557].veinsmobility 	maxSpeed 	5.6500000953674
scalar IntersectionExampleScenario.node[557].veinsmobility 	totalDistance 	1.3343734741211
scalar IntersectionExampleScenario.node[557].veinsmobility 	totalCO2Emission 	0
