file 20017733 1591408589                                        
version 2
run nodebug-37-20200605-21:53:36-20324
attr configname nodebug
attr datetime 20200605-21:53:36
attr experiment nodebug
attr inifile omnetpp.ini
attr iterationvars ""
attr iterationvars2 $repetition=37
attr measurement ""
attr network "\"org.car2x.veins.modules.application.ExtTraCIScenarioManagerLaunchd.IntersectionExampleScenario\""
attr processid 20324
attr repetition 37
attr replication #37
attr resultdir results
attr runnumber 37
attr seedset 37
param **.coreDebug false
param **.debug false
param *.**.nic.mac1609_4.bitrate 18Mbps
param *.**.nic.mac1609_4.txPower 20mW
param *.**.nic.mac1609_4.useServiceChannel false
param *.**.nic.phy80211p.analogueModels "xmldoc(\"config.xml\")"
param *.**.nic.phy80211p.decider "xmldoc(\"config.xml\")"
param *.**.nic.phy80211p.sensitivity -89dBm
param *.**.nic.phy80211p.thermalNoise -110dBm
param *.**.nic.phy80211p.usePropagationDelay true
param *.**.nic.phy80211p.useThermalNoise true
param *.annotations.draw false
param *.connectionManager.alpha 2.0
param *.connectionManager.carrierFrequency "5.890e9 Hz"
param *.connectionManager.pMax 20mW
param *.connectionManager.sat -89dBm
param *.connectionManager.sendDirect true
param *.manager.autoShutdown true
param *.manager.host "\"localhost\""
param *.manager.launchConfig "xmldoc(\"paramics.launchd.xml\")"
param *.manager.margin 25
param *.manager.moduleDisplayString "\"\""
param *.manager.moduleName "\"node\""
param *.manager.moduleType "\"org.car2x.veins.nodes.Car\""
param *.manager.port 9999
param *.manager.updateInterval 250ms
param *.node[*0].veinsmobility.accidentCount 0
param *.node[*0].veinsmobility.accidentDuration 30s
param *.node[*0].veinsmobility.accidentStart 75s
param *.node[*].appl.LiderSelectZoneRadio 55.0
param *.node[*].appl.ShareDataZoneRadio 110.0
param *.node[*].appl.TiempoSemaforo 30.0
param *.node[*].appl.beaconInterval 1s
param *.node[*].appl.beaconPriority 3
param *.node[*].appl.dataOnSch false
param *.node[*].appl.dataPriority 2
param *.node[*].appl.debug false
param *.node[*].appl.headerLength "256 bit"
param *.node[*].appl.maxOffset 0.005s
param *.node[*].appl.sendBeacons false
param *.node[*].appl.sendData true
param *.node[*].applType "\"Dummy\""
param *.node[*].mobilityType "\"TraCIMobility\""
param *.node[*].mobilityType.debug true
param *.node[*].veinsmobility.x 0
param *.node[*].veinsmobility.y 0
param *.node[*].veinsmobility.z 1.895
param *.node[*].veinsmobilityType "\"org.car2x.veins.modules.mobility.traci.TraCIMobility\""
param *.node[*].veinsmobilityType.debug true
param *.playgroundSizeX 8500m
param *.playgroundSizeY 8500m
param *.playgroundSizeZ 50m
param *.world.use2D false
param *.world.useTorus false

vector 35438  IntersectionExampleScenario.manager  vehiclesinsim  ETV
attr type  int
vector 35439  IntersectionExampleScenario.manager  realtime  ETV
attr type  int
attr unit  s
vector 35442  IntersectionExampleScenario.node[0].veinsmobility  posx  ETV
vector 35443  IntersectionExampleScenario.node[0].veinsmobility  posy  ETV
vector 35444  IntersectionExampleScenario.node[0].veinsmobility  speed  ETV
vector 35445  IntersectionExampleScenario.node[0].veinsmobility  acceleration  ETV
vector 35446  IntersectionExampleScenario.node[0].veinsmobility  co2emission  ETV
vector 35449  IntersectionExampleScenario.node[1].veinsmobility  posx  ETV
vector 35450  IntersectionExampleScenario.node[1].veinsmobility  posy  ETV
vector 35451  IntersectionExampleScenario.node[1].veinsmobility  speed  ETV
vector 35452  IntersectionExampleScenario.node[1].veinsmobility  acceleration  ETV
vector 35453  IntersectionExampleScenario.node[1].veinsmobility  co2emission  ETV
vector 35456  IntersectionExampleScenario.node[2].veinsmobility  posx  ETV
vector 35457  IntersectionExampleScenario.node[2].veinsmobility  posy  ETV
vector 35458  IntersectionExampleScenario.node[2].veinsmobility  speed  ETV
vector 35459  IntersectionExampleScenario.node[2].veinsmobility  acceleration  ETV
vector 35460  IntersectionExampleScenario.node[2].veinsmobility  co2emission  ETV
vector 35463  IntersectionExampleScenario.node[3].veinsmobility  posx  ETV
vector 35464  IntersectionExampleScenario.node[3].veinsmobility  posy  ETV
vector 35465  IntersectionExampleScenario.node[3].veinsmobility  speed  ETV
vector 35466  IntersectionExampleScenario.node[3].veinsmobility  acceleration  ETV
vector 35467  IntersectionExampleScenario.node[3].veinsmobility  co2emission  ETV
vector 35470  IntersectionExampleScenario.node[4].veinsmobility  posx  ETV
vector 35471  IntersectionExampleScenario.node[4].veinsmobility  posy  ETV
vector 35472  IntersectionExampleScenario.node[4].veinsmobility  speed  ETV
vector 35473  IntersectionExampleScenario.node[4].veinsmobility  acceleration  ETV
vector 35474  IntersectionExampleScenario.node[4].veinsmobility  co2emission  ETV
vector 35477  IntersectionExampleScenario.node[5].veinsmobility  posx  ETV
vector 35478  IntersectionExampleScenario.node[5].veinsmobility  posy  ETV
vector 35479  IntersectionExampleScenario.node[5].veinsmobility  speed  ETV
vector 35480  IntersectionExampleScenario.node[5].veinsmobility  acceleration  ETV
vector 35481  IntersectionExampleScenario.node[5].veinsmobility  co2emission  ETV
vector 35484  IntersectionExampleScenario.node[6].veinsmobility  posx  ETV
vector 35485  IntersectionExampleScenario.node[6].veinsmobility  posy  ETV
vector 35486  IntersectionExampleScenario.node[6].veinsmobility  speed  ETV
vector 35487  IntersectionExampleScenario.node[6].veinsmobility  acceleration  ETV
vector 35488  IntersectionExampleScenario.node[6].veinsmobility  co2emission  ETV
vector 35491  IntersectionExampleScenario.node[7].veinsmobility  posx  ETV
vector 35492  IntersectionExampleScenario.node[7].veinsmobility  posy  ETV
vector 35498  IntersectionExampleScenario.node[8].veinsmobility  posx  ETV
vector 35499  IntersectionExampleScenario.node[8].veinsmobility  posy  ETV
vector 35493  IntersectionExampleScenario.node[7].veinsmobility  speed  ETV
vector 35500  IntersectionExampleScenario.node[8].veinsmobility  speed  ETV
vector 35494  IntersectionExampleScenario.node[7].veinsmobility  acceleration  ETV
vector 35495  IntersectionExampleScenario.node[7].veinsmobility  co2emission  ETV
vector 35501  IntersectionExampleScenario.node[8].veinsmobility  acceleration  ETV
vector 35502  IntersectionExampleScenario.node[8].veinsmobility  co2emission  ETV
vector 35505  IntersectionExampleScenario.node[9].veinsmobility  posx  ETV
vector 35506  IntersectionExampleScenario.node[9].veinsmobility  posy  ETV
vector 35507  IntersectionExampleScenario.node[9].veinsmobility  speed  ETV
vector 35508  IntersectionExampleScenario.node[9].veinsmobility  acceleration  ETV
vector 35509  IntersectionExampleScenario.node[9].veinsmobility  co2emission  ETV
35446	6896 4722 60 1642 13.75 51.5 152 0.94600815583079 12.353032912318 521.49983439169 3147.3765763683
35445	11618 4341 60 1642 13.75 51.5 152 -3.4636688232422 2.5 41.566686630249 277.86219788762
35444	15959 4585 57 1642 13.5 51.5 153 5.6500000953674 16.625 2204.2712345123 32925.517140197
35443	20544 4948 54 1642 13.25 51.5 154 238.12420654297 486.85000610352 67050.162506104 30096672.055422
35442	25492 4949 54 1642 13.25 51.5 154 483.14999389648 785.82187652588 88129.611869812 52165528.7986
vector 35512  IntersectionExampleScenario.node[10].veinsmobility  posx  ETV
vector 35513  IntersectionExampleScenario.node[10].veinsmobility  posy  ETV
vector 35514  IntersectionExampleScenario.node[10].veinsmobility  speed  ETV
vector 35515  IntersectionExampleScenario.node[10].veinsmobility  acceleration  ETV
vector 35516  IntersectionExampleScenario.node[10].veinsmobility  co2emission  ETV
vector 35519  IntersectionExampleScenario.node[11].veinsmobility  posx  ETV
vector 35520  IntersectionExampleScenario.node[11].veinsmobility  posy  ETV
vector 35521  IntersectionExampleScenario.node[11].veinsmobility  speed  ETV
vector 35522  IntersectionExampleScenario.node[11].veinsmobility  acceleration  ETV
vector 35523  IntersectionExampleScenario.node[11].veinsmobility  co2emission  ETV
vector 35526  IntersectionExampleScenario.node[12].veinsmobility  posx  ETV
vector 35527  IntersectionExampleScenario.node[12].veinsmobility  posy  ETV
vector 35528  IntersectionExampleScenario.node[12].veinsmobility  speed  ETV
vector 35533  IntersectionExampleScenario.node[13].veinsmobility  posx  ETV
vector 35534  IntersectionExampleScenario.node[13].veinsmobility  posy  ETV
vector 35529  IntersectionExampleScenario.node[12].veinsmobility  acceleration  ETV
vector 35530  IntersectionExampleScenario.node[12].veinsmobility  co2emission  ETV
vector 35540  IntersectionExampleScenario.node[14].veinsmobility  posx  ETV
vector 35541  IntersectionExampleScenario.node[14].veinsmobility  posy  ETV
vector 35535  IntersectionExampleScenario.node[13].veinsmobility  speed  ETV
vector 35536  IntersectionExampleScenario.node[13].veinsmobility  acceleration  ETV
vector 35537  IntersectionExampleScenario.node[13].veinsmobility  co2emission  ETV
vector 35542  IntersectionExampleScenario.node[14].veinsmobility  speed  ETV
vector 35543  IntersectionExampleScenario.node[14].veinsmobility  acceleration  ETV
vector 35544  IntersectionExampleScenario.node[14].veinsmobility  co2emission  ETV
35453	32446 5974 88 2508 15.75 65.5 200 0.973 11.450879080643 564.17384761521 2810.6480550459
35452	38420 5280 88 2508 15.75 65.5 200 -6.9984560012817 4 37.492597579956 466.08322164982
35451	43700 5797 83 2508 15.5 65.5 201 0 15.375 2203.9428420067 30785.576233573
35450	49497 6529 78 2508 15.25 65.5 202 184.17810058594 486.85000610352 83409.392120361 36404122.025097
35449	56026 6549 78 2508 15.25 65.5 202 236.23193359375 486.85000610352 89788.153289795 40977590.739035
35467	62575 5224 291 2562 25 66.25 166 0.973 11.00486315618 482.71631792373 2369.0645185933
35466	67799 4682 291 2562 25 66.25 166 -4.7486724853516 2.5 34.437047958374 246.98056354982
35465	72481 5165 282 2562 24.75 66.25 167 5.6500000953674 14.75 2204.7686080933 29808.84320381
35464	77646 5462 273 2562 24.5 66.25 168 482.9267578125 785.82187652588 95963.362670898 56655630.944305
35463	83108 5461 273 2562 24.5 66.25 168 483.14999389648 732.80586242676 90091.755432129 49325754.432064
35460	88569 5373 252 2653 23.75 67.75 177 0.97223939240464 11.648172402475 527.59141097508 2802.0044664035
35459	93942 5339 252 2653 23.75 67.75 177 -2.228874206543 2.5 38.680875778198 265.90568071393
35458	99281 5548 245 2653 23.5 67.75 178 4.2161145210266 15.64999961853 2210.4435901642 29871.931128035
35457	104829 5808 238 2653 23.25 67.75 179 184.17810058594 486.85000610352 72091.707183838 30842982.383771
35456	110637 5829 238 2653 23.25 67.75 179 236.49584960938 486.85000610352 78755.69631958 35656120.287871
vector 35547  IntersectionExampleScenario.node[15].veinsmobility  posx  ETV
vector 35548  IntersectionExampleScenario.node[15].veinsmobility  posy  ETV
vector 35554  IntersectionExampleScenario.node[16].veinsmobility  posx  ETV
vector 35555  IntersectionExampleScenario.node[16].veinsmobility  posy  ETV
vector 35549  IntersectionExampleScenario.node[15].veinsmobility  speed  ETV
vector 35556  IntersectionExampleScenario.node[16].veinsmobility  speed  ETV
vector 35550  IntersectionExampleScenario.node[15].veinsmobility  acceleration  ETV
vector 35551  IntersectionExampleScenario.node[15].veinsmobility  co2emission  ETV
vector 35557  IntersectionExampleScenario.node[16].veinsmobility  acceleration  ETV
vector 35558  IntersectionExampleScenario.node[16].veinsmobility  co2emission  ETV
vector 35561  IntersectionExampleScenario.node[17].veinsmobility  posx  ETV
vector 35562  IntersectionExampleScenario.node[17].veinsmobility  posy  ETV
vector 35568  IntersectionExampleScenario.node[18].veinsmobility  posx  ETV
vector 35569  IntersectionExampleScenario.node[18].veinsmobility  posy  ETV
35481	117576 5172 751 3324 37.75 78 162 0.973 11.36141391502 497.59860970425 2603.3112020495
35480	122748 4686 751 3324 37.75 78 162 -3.4656524658203 2.5 36.98334312439 274.192838124
35479	127434 5042 740 3324 37.5 78 163 5.6500000953674 15.25 2183.7127151489 30486.634393445
35478	132476 5362 729 3324 37.25 78 164 184.17810058594 483.15249633789 65209.492889404 27692069.257293
35477	137838 5342 729 3324 37.25 78 164 486.85000610352 733.28245544434 88214.638122559 48394480.025309
vector 35563  IntersectionExampleScenario.node[17].veinsmobility  speed  ETV
vector 35570  IntersectionExampleScenario.node[18].veinsmobility  speed  ETV
vector 35564  IntersectionExampleScenario.node[17].veinsmobility  acceleration  ETV
vector 35565  IntersectionExampleScenario.node[17].veinsmobility  co2emission  ETV
vector 35571  IntersectionExampleScenario.node[18].veinsmobility  acceleration  ETV
vector 35572  IntersectionExampleScenario.node[18].veinsmobility  co2emission  ETV
35502	143674 4951 933 3462 41.25 79.5 154 0.973 11.648172402475 499.23665966146 2688.9234758376
35501	148625 4460 933 3462 41.25 79.5 154 -3.9821815490723 2.5 39.869146347046 247.13860976955
35500	153085 4886 916 3462 41 79.5 155 5.6500000953674 15.64999961853 2203.4822158813 32337.372713834
35499	157971 5132 899 3462 40.75 79.5 156 482.95849609375 785.82187652588 89299.246513367 52869722.42928
35498	163103 5137 899 3462 40.75 79.5 156 483.14999389648 732.62438964844 83551.511642456 45678760.159623
35474	168240 5490 720 3637 37 81.5 179 0.973 12.099024792222 572.57500333811 3211.4086680829
35473	173730 5100 720 3637 37 81.5 179 -6.9978852272034 4 41.227170944214 489.15880119239
35472	178830 5369 711 3637 36.75 81.5 180 0 16.27499961853 2191.8622056246 32120.723113055
35471	184199 5946 702 3637 36.5 81.5 181 483.14999389648 735.22354125977 95627.070159912 51525197.225032
35470	190145 5923 702 3637 36.5 81.5 181 184.17810058594 486.85000610352 73912.304962158 32035930.208679
35488	196068 5494 821 3721 39.25 82.5 174 0.973 11.810082123732 563.86481276297 2982.5024093634
35487	201562 5074 821 3721 39.25 82.5 174 -29.491834640503 4 39.869146347046 1257.523642949
35486	206636 5374 808 3721 39 82.5 175 0 15.875 2264.6404490471 32463.208144022
35485	212010 5762 795 3721 38.75 82.5 176 163.88433837891 483.26010131836 69397.304168701 29469561.573319
35484	217772 5790 795 3721 38.75 82.5 176 486.85000610352 733.10446166992 93676.40296936 50803838.048712
vector 35575  IntersectionExampleScenario.node[19].veinsmobility  posx  ETV
vector 35576  IntersectionExampleScenario.node[19].veinsmobility  posy  ETV
vector 35577  IntersectionExampleScenario.node[19].veinsmobility  speed  ETV
vector 35578  IntersectionExampleScenario.node[19].veinsmobility  acceleration  ETV
vector 35579  IntersectionExampleScenario.node[19].veinsmobility  co2emission  ETV
vector 35582  IntersectionExampleScenario.node[20].veinsmobility  posx  ETV
vector 35583  IntersectionExampleScenario.node[20].veinsmobility  posy  ETV
vector 35589  IntersectionExampleScenario.node[21].veinsmobility  posx  ETV
vector 35590  IntersectionExampleScenario.node[21].veinsmobility  posy  ETV
vector 35584  IntersectionExampleScenario.node[20].veinsmobility  speed  ETV
vector 35591  IntersectionExampleScenario.node[21].veinsmobility  speed  ETV
vector 35585  IntersectionExampleScenario.node[20].veinsmobility  acceleration  ETV
vector 35586  IntersectionExampleScenario.node[20].veinsmobility  co2emission  ETV
vector 35592  IntersectionExampleScenario.node[21].veinsmobility  acceleration  ETV
vector 35593  IntersectionExampleScenario.node[21].veinsmobility  co2emission  ETV
vector 35596  IntersectionExampleScenario.node[22].veinsmobility  posx  ETV
vector 35597  IntersectionExampleScenario.node[22].veinsmobility  posy  ETV
vector 35598  IntersectionExampleScenario.node[22].veinsmobility  speed  ETV
vector 35599  IntersectionExampleScenario.node[22].veinsmobility  acceleration  ETV
vector 35600  IntersectionExampleScenario.node[22].veinsmobility  co2emission  ETV
vector 35603  IntersectionExampleScenario.node[23].veinsmobility  posx  ETV
vector 35604  IntersectionExampleScenario.node[23].veinsmobility  posy  ETV
vector 35605  IntersectionExampleScenario.node[23].veinsmobility  speed  ETV
35495	225398 6548 933 5133 41.25 96.25 221 0.973 11.648172402475 592.80791236005 2978.3158675118
35494	231946 5977 933 5133 41.25 96.25 221 -7.03919506073 4 38.341367721558 481.63103295482
35493	237923 6305 916 5133 41 96.25 222 0 15.64999961853 2212.4081838131 31409.619262413
35492	244228 7353 899 5133 40.75 96.25 223 486.85000610352 486.85000610352 108567.55136108 52856113.042787
35491	251581 7338 899 5133 40.75 96.25 223 236.58178710938 785.82187652588 114745.2405014 63209583.316667
vector 35606  IntersectionExampleScenario.node[23].veinsmobility  acceleration  ETV
vector 35607  IntersectionExampleScenario.node[23].veinsmobility  co2emission  ETV
vector 35610  IntersectionExampleScenario.node[24].veinsmobility  posx  ETV
vector 35611  IntersectionExampleScenario.node[24].veinsmobility  posy  ETV
vector 35612  IntersectionExampleScenario.node[24].veinsmobility  speed  ETV
vector 35613  IntersectionExampleScenario.node[24].veinsmobility  acceleration  ETV
vector 35614  IntersectionExampleScenario.node[24].veinsmobility  co2emission  ETV
vector 35617  IntersectionExampleScenario.node[25].veinsmobility  posx  ETV
vector 35618  IntersectionExampleScenario.node[25].veinsmobility  posy  ETV
vector 35624  IntersectionExampleScenario.node[26].veinsmobility  posx  ETV
vector 35625  IntersectionExampleScenario.node[26].veinsmobility  posy  ETV
vector 35619  IntersectionExampleScenario.node[25].veinsmobility  speed  ETV
vector 35620  IntersectionExampleScenario.node[25].veinsmobility  acceleration  ETV
vector 35621  IntersectionExampleScenario.node[25].veinsmobility  co2emission  ETV
vector 35626  IntersectionExampleScenario.node[26].veinsmobility  speed  ETV
vector 35627  IntersectionExampleScenario.node[26].veinsmobility  acceleration  ETV
vector 35628  IntersectionExampleScenario.node[26].veinsmobility  co2emission  ETV
35544	260291 5056 2432 5829 64.5 103.75 158 0.973 11.810082123732 513.43619907667 2875.6901887968
35543	265347 4666 2432 5829 64.5 103.75 158 -3.2696113586426 2.5 39.529638290405 284.07429327694
35542	270013 4935 2413 5829 64.25 103.75 159 5.6500000953674 15.875 2188.4402418137 31584.250986053
35541	274948 5292 2394 5829 64 103.75 160 486.85000610352 734.31695556641 86012.819915771 47160665.558399
35540	280240 5291 2394 5829 64 103.75 160 486.85000610352 785.82187652588 91574.494667053 54143684.307907
vector 35631  IntersectionExampleScenario.node[27].veinsmobility  posx  ETV
vector 35632  IntersectionExampleScenario.node[27].veinsmobility  posy  ETV
vector 35633  IntersectionExampleScenario.node[27].veinsmobility  speed  ETV
vector 35634  IntersectionExampleScenario.node[27].veinsmobility  acceleration  ETV
vector 35635  IntersectionExampleScenario.node[27].veinsmobility  co2emission  ETV
vector 35638  IntersectionExampleScenario.node[28].veinsmobility  posx  ETV
vector 35639  IntersectionExampleScenario.node[28].veinsmobility  posy  ETV
vector 35640  IntersectionExampleScenario.node[28].veinsmobility  speed  ETV
vector 35641  IntersectionExampleScenario.node[28].veinsmobility  acceleration  ETV
vector 35642  IntersectionExampleScenario.node[28].veinsmobility  co2emission  ETV
vector 35645  IntersectionExampleScenario.node[29].veinsmobility  posx  ETV
vector 35646  IntersectionExampleScenario.node[29].veinsmobility  posy  ETV
vector 35647  IntersectionExampleScenario.node[29].veinsmobility  speed  ETV
vector 35648  IntersectionExampleScenario.node[29].veinsmobility  acceleration  ETV
vector 35649  IntersectionExampleScenario.node[29].veinsmobility  co2emission  ETV
35516	286734 6339 1907 6385 56.5 109.5 213 0.973 12.099024792222 607.04064310478 3267.8922660884
35515	293073 5811 1907 6385 56.5 109.5 213 -6.9978852272034 4 41.227170944214 492.65880119239
35514	298884 6106 1892 6385 56.25 109.5 214 0 16.27499961853 2205.6507912874 32465.664712985
35513	304990 7118 1877 6385 56 109.5 215 238.59759521484 785.82187652588 110948.34653473 61250243.737028
35512	312108 7133 1877 6385 56 109.5 215 483.14999389648 483.14999389648 103877.24868774 50188292.069467
vector 35652  IntersectionExampleScenario.node[30].veinsmobility  posx  ETV
vector 35653  IntersectionExampleScenario.node[30].veinsmobility  posy  ETV
35509	319395 7428 1260 6493 46 110.5 259 0.973 11.450879080643 629.53796454996 3077.1867265664
35508	326823 6990 1260 6493 46 110.5 259 -6.8367977142334 4 36.98334312439 479.60314204865
35507	333813 7105 1241 6493 45.75 110.5 260 0 15.375 2209.3814485073 30705.775460087
35506	340918 8623 1222 6493 45.5 110.5 261 184.17810058594 732.67367553711 119412.68305969 58863217.308989
35505	349541 8656 1222 6493 45.5 110.5 261 486.85000610352 486.85000610352 127067.85159302 61862984.323621
vector 35654  IntersectionExampleScenario.node[30].veinsmobility  speed  ETV
vector 35655  IntersectionExampleScenario.node[30].veinsmobility  acceleration  ETV
vector 35656  IntersectionExampleScenario.node[30].veinsmobility  co2emission  ETV
35523	358444 6979 1986 6737 57.75 112.75 221 0.973 11.200708441096 576.20103674172 2699.0532627395
35522	365423 7002 1986 6737 57.75 112.75 221 -4.5 2.5 35.964826583862 397.58317062902
35521	372425 7238 1969 6737 57.5 112.75 222 0 15.02499961853 2292.2831670456 31097.732777788
35520	379663 7389 1952 6737 57.25 112.75 223 238.28576660156 807.09531402588 117138.33666229 66281269.647455
35519	387052 7413 1952 6737 57.25 112.75 223 483.14999389648 483.14999389648 107742.44863892 52055763.402284
35551	394465 5335 3096 7087 75 116.25 166 0.973 11.057496281313 521.72448923708 2898.5302279742
35550	399800 4919 3096 7087 75 116.25 166 -4.0449256896973 2.5 34.94630241394 293.59035256939
35549	404719 5303 3077 7087 74.75 116.25 167 5.6500000953674 14.823991775513 2210.8832359314 29974.917543634
35548	410022 5599 3058 7087 74.5 116.25 168 482.96206665039 785.82187652588 96024.487213135 56716118.585743
35547	415621 5599 3058 7087 74.5 116.25 168 483.14999389648 734.81643676758 90157.946090698 49412621.023403
35572	421220 5026 3370 7133 78.5 116.75 154 0.973 11.90022389248 502.9479055707 2795.3489899637
35571	426246 4516 3370 7133 78.5 116.75 154 -3.2893447875977 2.5 40.208654403687 247.87905772165
35570	430762 4889 3347 7133 78.25 116.75 155 5.6500000953674 16 2211.670129776 32607.486032993
35569	435651 5194 3324 7133 78 116.75 156 184.17810058594 486.88061523438 62064.38067627 26444177.738478
35568	440845 5202 3324 7133 78 116.75 156 235.92254638672 486.85000610352 67719.25088501 30337449.775055
vector 35659  IntersectionExampleScenario.node[31].veinsmobility  posx  ETV
vector 35660  IntersectionExampleScenario.node[31].veinsmobility  posy  ETV
vector 35661  IntersectionExampleScenario.node[31].veinsmobility  speed  ETV
vector 35662  IntersectionExampleScenario.node[31].veinsmobility  acceleration  ETV
vector 35663  IntersectionExampleScenario.node[31].veinsmobility  co2emission  ETV
35565	446448 5497 3370 7432 78.5 120 167 0.973 10.756497587458 448.04336466629 1964.4717302089
35564	451945 4883 3370 7432 78.5 120 167 -3.2339324951172 2.5 33.418523788452 154.24571421105
35563	456828 5368 3347 7432 78.25 120 168 5.6500000953674 14.39999961853 2252.5960159302 30606.05430352
35562	462196 5637 3324 7432 78 120 169 237.03625488281 795.46562957764 88652.163818359 51128429.966362
35561	467833 5656 3324 7432 78 120 169 483.14999389648 483.14999389648 81652.348968506 39450331.905767
vector 35666  IntersectionExampleScenario.node[32].veinsmobility  posx  ETV
vector 35667  IntersectionExampleScenario.node[32].veinsmobility  posy  ETV
vector 35668  IntersectionExampleScenario.node[32].veinsmobility  speed  ETV
vector 35669  IntersectionExampleScenario.node[32].veinsmobility  acceleration  ETV
vector 35670  IntersectionExampleScenario.node[32].veinsmobility  co2emission  ETV
vector 35673  IntersectionExampleScenario.node[33].veinsmobility  posx  ETV
vector 35674  IntersectionExampleScenario.node[33].veinsmobility  posy  ETV
vector 35675  IntersectionExampleScenario.node[33].veinsmobility  speed  ETV
35593	474122 5042 3909 7676 84.5 122.5 153 0.973 10.756497587458 477.89371150157 2191.1350357786
35592	479164 4895 3909 7676 84.5 122.5 153 -3.2518920898438 2.5 39.869146347046 172.64372656515
35591	484059 4958 3882 7676 84.25 122.5 154 5.6500000953674 15.633820533752 2222.7423524857 32766.089164408
35590	489017 5187 3855 7676 84 122.5 155 235.39349365234 785.82187652588 80869.388938904 46324258.750916
35589	494204 5205 3855 7676 84 122.5 155 483.14999389648 483.14999389648 74888.249053955 36182257.073337
vector 35676  IntersectionExampleScenario.node[33].veinsmobility  acceleration  ETV
vector 35677  IntersectionExampleScenario.node[33].veinsmobility  co2emission  ETV
vector 35680  IntersectionExampleScenario.node[34].veinsmobility  posx  ETV
vector 35681  IntersectionExampleScenario.node[34].veinsmobility  posy  ETV
vector 35682  IntersectionExampleScenario.node[34].veinsmobility  speed  ETV
vector 35687  IntersectionExampleScenario.node[35].veinsmobility  posx  ETV
vector 35688  IntersectionExampleScenario.node[35].veinsmobility  posy  ETV
vector 35683  IntersectionExampleScenario.node[34].veinsmobility  acceleration  ETV
vector 35684  IntersectionExampleScenario.node[34].veinsmobility  co2emission  ETV
vector 35689  IntersectionExampleScenario.node[35].veinsmobility  speed  ETV
vector 35694  IntersectionExampleScenario.node[36].veinsmobility  posx  ETV
vector 35695  IntersectionExampleScenario.node[36].veinsmobility  posy  ETV
vector 35690  IntersectionExampleScenario.node[35].veinsmobility  acceleration  ETV
vector 35691  IntersectionExampleScenario.node[35].veinsmobility  co2emission  ETV
vector 35696  IntersectionExampleScenario.node[36].veinsmobility  speed  ETV
vector 35697  IntersectionExampleScenario.node[36].veinsmobility  acceleration  ETV
vector 35698  IntersectionExampleScenario.node[36].veinsmobility  co2emission  ETV
vector 35701  IntersectionExampleScenario.node[37].veinsmobility  posx  ETV
vector 35702  IntersectionExampleScenario.node[37].veinsmobility  posy  ETV
35530	500935 7293 2377 8162 63.75 126.5 252 0.973 12.099024792222 652.7888590724 3316.0634955931
35529	508228 6532 2377 8162 63.75 126.5 252 -7.0093479156494 4 42.415441513062 494.93670881627
35528	514760 6848 2361 8162 63.5 126.5 253 0 16.306669235229 2181.8908815384 32282.609238448
35527	521608 8421 2344 8162 63.25 126.5 254 236.18817138672 483.14999389648 114967.52905273 53069874.188696
35526	530029 8457 2344 8162 63.25 126.5 254 184.17810058594 483.36395263672 108217.50018311 48132723.912677
vector 35703  IntersectionExampleScenario.node[37].veinsmobility  speed  ETV
vector 35708  IntersectionExampleScenario.node[38].veinsmobility  posx  ETV
vector 35709  IntersectionExampleScenario.node[38].veinsmobility  posy  ETV
vector 35704  IntersectionExampleScenario.node[37].veinsmobility  acceleration  ETV
vector 35705  IntersectionExampleScenario.node[37].veinsmobility  co2emission  ETV
vector 35710  IntersectionExampleScenario.node[38].veinsmobility  speed  ETV
vector 35711  IntersectionExampleScenario.node[38].veinsmobility  acceleration  ETV
vector 35712  IntersectionExampleScenario.node[38].veinsmobility  co2emission  ETV
vector 35715  IntersectionExampleScenario.node[39].veinsmobility  posx  ETV
vector 35716  IntersectionExampleScenario.node[39].veinsmobility  posy  ETV
vector 35717  IntersectionExampleScenario.node[39].veinsmobility  speed  ETV
vector 35722  IntersectionExampleScenario.node[40].veinsmobility  posx  ETV
vector 35723  IntersectionExampleScenario.node[40].veinsmobility  posy  ETV
vector 35718  IntersectionExampleScenario.node[39].veinsmobility  acceleration  ETV
vector 35719  IntersectionExampleScenario.node[39].veinsmobility  co2emission  ETV
vector 35724  IntersectionExampleScenario.node[40].veinsmobility  speed  ETV
vector 35725  IntersectionExampleScenario.node[40].veinsmobility  acceleration  ETV
vector 35726  IntersectionExampleScenario.node[40].veinsmobility  co2emission  ETV
vector 35729  IntersectionExampleScenario.node[41].veinsmobility  posx  ETV
vector 35730  IntersectionExampleScenario.node[41].veinsmobility  posy  ETV
vector 35731  IntersectionExampleScenario.node[41].veinsmobility  speed  ETV
vector 35732  IntersectionExampleScenario.node[41].veinsmobility  acceleration  ETV
vector 35733  IntersectionExampleScenario.node[41].veinsmobility  co2emission  ETV
35537	540337 8082 2413 8571 64.25 129.5 262 0.973 11.810082123732 643.08360875602 3087.1899592064
35536	548419 8099 2413 8571 64.25 129.5 262 -4.5 2.5 38.680875778198 439.83726089061
35535	556518 8101 2394 8571 64 129.5 263 0 15.875 2273.8916224986 31649.250123633
35534	564619 8826 2377 8571 63.75 129.5 264 238.10894775391 483.14999389648 119491.39422607 55150216.397118
35533	573445 8797 2377 8571 63.75 129.5 264 160.43438720703 483.14999389648 109710.72680664 48082930.743653
vector 35736  IntersectionExampleScenario.node[42].veinsmobility  posx  ETV
vector 35737  IntersectionExampleScenario.node[42].veinsmobility  posy  ETV
vector 35738  IntersectionExampleScenario.node[42].veinsmobility  speed  ETV
vector 35739  IntersectionExampleScenario.node[42].veinsmobility  acceleration  ETV
vector 35740  IntersectionExampleScenario.node[42].veinsmobility  co2emission  ETV
vector 35743  IntersectionExampleScenario.node[43].veinsmobility  posx  ETV
vector 35744  IntersectionExampleScenario.node[43].veinsmobility  posy  ETV
vector 35745  IntersectionExampleScenario.node[43].veinsmobility  speed  ETV
35558	582875 7032 3096 8988 75 132.25 230 0.973 11.450879080643 576.93503875239 2774.5262058644
35557	589907 7387 3096 8988 75 132.25 230 -3.8092155456543 2.5000009536743 36.98334312439 322.89718033392
35556	597294 7464 3077 8988 74.75 132.25 231 0 15.375 2205.8204579428 28550.559578406
35555	604758 7776 3058 8988 74.5 132.25 232 483.14999389648 732.32063293457 120621.90614319 63817292.071648
35554	612534 7747 3058 8988 74.5 132.25 232 184.17810058594 486.85000610352 95976.79486084 41646207.35383
vector 35746  IntersectionExampleScenario.node[43].veinsmobility  acceleration  ETV
vector 35747  IntersectionExampleScenario.node[43].veinsmobility  co2emission  ETV
35600	620450 5707 4486 9439 90 135 181 0.973 11.36141391502 548.91833170927 2946.1306855799
35599	626157 5643 4486 9439 90 135 181 -3.3711357116699 2.5000019073486 36.98334312439 343.08340430237
35598	631800 5826 4459 9439 89.75 135 182 5.3156576156616 15.25 2186.8811397552 28436.738012671
35597	637626 6171 4432 9439 89.5 135 183 236.20812988281 483.14999389648 80008.232574463 35973732.955863
35596	643797 6144 4432 9439 89.5 135 183 184.17810058594 483.21026611328 73313.771240234 31158136.709013
vector 35750  IntersectionExampleScenario.node[44].veinsmobility  posx  ETV
vector 35751  IntersectionExampleScenario.node[44].veinsmobility  posy  ETV
vector 35752  IntersectionExampleScenario.node[44].veinsmobility  speed  ETV
vector 35753  IntersectionExampleScenario.node[44].veinsmobility  acceleration  ETV
vector 35754  IntersectionExampleScenario.node[44].veinsmobility  co2emission  ETV
35579	650342 7024 3809 10476 83.5 141.5 233 0.973 11.450879080643 595.87642240935 2859.0874930658
35578	657366 6316 3809 10476 83.5 141.5 233 -7.3439340591431 4 37.32285118103 471.71975753043
35577	663682 6747 3786 10476 83.25 141.5 234 0 15.375 2212.9979789257 30954.471572816
35576	670429 7934 3763 10476 83 141.5 235 486.85000610352 486.85000610352 114409.75143433 55700388.184103
35575	678363 7919 3763 10476 83 141.5 235 236.18798828125 785.82187652588 120710.83519745 66235874.623076
vector 35757  IntersectionExampleScenario.node[45].veinsmobility  posx  ETV
vector 35758  IntersectionExampleScenario.node[45].veinsmobility  posy  ETV
vector 35759  IntersectionExampleScenario.node[45].veinsmobility  speed  ETV
vector 35760  IntersectionExampleScenario.node[45].veinsmobility  acceleration  ETV
vector 35761  IntersectionExampleScenario.node[45].veinsmobility  co2emission  ETV
35586	686683 7552 3909 10706 84.5 143 235 0.973 11.36141391502 603.46494790982 2830.1251143896
35585	694235 7254 3909 10706 84.5 143 235 -4.5 2.5 37.15309715271 437.21573588785
35584	701489 7516 3882 10706 84.25 143 236 0 15.25 2273.4888151446 31037.545264795
35583	709005 8003 3855 10706 84 143 237 486.85000610352 733.1602935791 123718.85673523 65656390.369193
35582	717008 7986 3855 10706 84 143 237 486.85000610352 807.99687957764 132693.35853577 76677716.884104
35607	724994 5880 5157 10823 96.5 143.75 190 0.973 12.099024792222 560.7985622424 3051.8423485532
35606	730874 5977 5157 10823 96.5 143.75 190 -2.0349540710449 2.5 40.038900375366 312.9902407461
35605	736851 6315 5133 10823 96.25 143.75 191 1.9773615598679 16.27499961853 2223.8428419828 30278.932947318
35604	743166 6534 5108 10823 96 143.75 192 486.85000610352 486.85000610352 93475.201171875 45508402.261055
35603	749700 6510 5108 10823 96 143.75 192 235.17614746094 785.82187652588 100355.24723053 56560255.652374
vector 35764  IntersectionExampleScenario.node[46].veinsmobility  posx  ETV
vector 35765  IntersectionExampleScenario.node[46].veinsmobility  posy  ETV
vector 35766  IntersectionExampleScenario.node[46].veinsmobility  speed  ETV
vector 35767  IntersectionExampleScenario.node[46].veinsmobility  acceleration  ETV
vector 35768  IntersectionExampleScenario.node[46].veinsmobility  co2emission  ETV
vector 35771  IntersectionExampleScenario.node[47].veinsmobility  posx  ETV
vector 35772  IntersectionExampleScenario.node[47].veinsmobility  posy  ETV
vector 35773  IntersectionExampleScenario.node[47].veinsmobility  speed  ETV
vector 35774  IntersectionExampleScenario.node[47].veinsmobility  acceleration  ETV
vector 35775  IntersectionExampleScenario.node[47].veinsmobility  co2emission  ETV
vector 35778  IntersectionExampleScenario.node[48].veinsmobility  posx  ETV
vector 35779  IntersectionExampleScenario.node[48].veinsmobility  posy  ETV
vector 35780  IntersectionExampleScenario.node[48].veinsmobility  speed  ETV
vector 35781  IntersectionExampleScenario.node[48].veinsmobility  acceleration  ETV
vector 35782  IntersectionExampleScenario.node[48].veinsmobility  co2emission  ETV
vector 35785  IntersectionExampleScenario.node[49].veinsmobility  posx  ETV
vector 35786  IntersectionExampleScenario.node[49].veinsmobility  posy  ETV
vector 35787  IntersectionExampleScenario.node[49].veinsmobility  speed  ETV
vector 35788  IntersectionExampleScenario.node[49].veinsmobility  acceleration  ETV
vector 35789  IntersectionExampleScenario.node[49].veinsmobility  co2emission  ETV
vector 35792  IntersectionExampleScenario.node[50].veinsmobility  posx  ETV
vector 35793  IntersectionExampleScenario.node[50].veinsmobility  posy  ETV
35621	757968 6560 5686 12470 102.25 155 212 0.973 11.90022389248 590.07698070338 3096.6006632535
35620	764528 6218 5686 12470 102.25 155 212 -8.6357612609863 4 39.020376205444 507.82205708136
35619	770746 6371 5661 12470 102 155 213 0 16 2207.987319231 31650.641637973
35618	777117 7311 5638 12470 101.75 155 214 184.17810058594 732.41050720215 97220.034927368 48280514.920904
35617	784428 7342 5638 12470 101.75 155 214 486.85000610352 486.85000610352 104185.90130615 50722906.6868
vector 35794  IntersectionExampleScenario.node[50].veinsmobility  speed  ETV
vector 35795  IntersectionExampleScenario.node[50].veinsmobility  acceleration  ETV
vector 35796  IntersectionExampleScenario.node[50].veinsmobility  co2emission  ETV
35614	792017 7072 5391 12617 99 156 229 0.973 11.200708441096 576.51222153575 2670.4929163284
35613	799089 6402 5391 12617 99 156 229 -6.8640689849854 4 35.625318527222 445.86479464531
35612	805491 6795 5366 12617 98.75 156 230 0 15.02499961853 2184.6829628944 29567.904340929
35611	812286 7912 5341 12617 98.5 156 231 486.63604736328 785.82187652588 127448.54032135 72348933.926388
35610	820198 7847 5341 12617 98.5 156 231 234.9931640625 483.14999389648 102933.33621216 46973535.35602
vector 35799  IntersectionExampleScenario.node[51].veinsmobility  posx  ETV
vector 35800  IntersectionExampleScenario.node[51].veinsmobility  posy  ETV
vector 35801  IntersectionExampleScenario.node[51].veinsmobility  speed  ETV
vector 35802  IntersectionExampleScenario.node[51].veinsmobility  acceleration  ETV
vector 35803  IntersectionExampleScenario.node[51].veinsmobility  co2emission  ETV
35635	828446 6634 6017 12898 105.75 158 210 0.973 11.200708441096 565.05547070422 2699.9063036063
35634	835080 6770 6017 12898 105.75 158 210 -3.8482480049133 2.5 38.341367721558 325.55252585098
35633	841850 6989 5992 12898 105.5 158 211 0 15.248852729797 2183.1723408997 29168.911513188
35632	848839 7271 5967 12898 105.25 158 212 486.85000610352 785.82187652588 118397.69078827 68010360.323922
35631	856110 7285 5967 12898 105.25 158 212 236.96563720703 483.14999389648 94233.877227783 42909027.821323
35649	863395 6551 6385 13241 109.5 160.5 205 0.973 11.648172402475 571.67497262758 2901.2452810205
35648	869946 6555 6385 13241 109.5 160.5 205 -4.5 2.5 38.341367721558 390.34240676545
35647	876501 6771 6358 13241 109.25 160.5 206 1.6330170631409 15.64999961853 2217.2168660164 28969.596563677
35646	883272 7110 6331 13241 109 160.5 207 486.84884643555 793.78281402588 117101.56167603 68196772.226838
35645	890382 7116 6331 13241 109 160.5 207 236.30230712891 483.14999389648 91783.737854004 41718865.890865
35663	897498 5512 7316 13438 118.75 162 174 0.973 11.648172402475 528.83126786004 2967.1588431567
35662	903010 5413 7316 13438 118.75 162 174 -3.7157707214355 2.5 38.511121749878 293.10270339872
35661	908423 5758 7293 13438 118.5 162 175 5.6500000953674 15.64999961853 2206.2759461403 29468.372793221
35660	914181 6067 7270 13438 118.25 162 176 483.14627075195 785.82187652588 100250.07492828 58899155.357112
35659	920248 6071 7270 13438 118.25 162 176 483.14999389648 732.57217407227 93383.370239258 50538986.658189
vector 35806  IntersectionExampleScenario.node[52].veinsmobility  posx  ETV
vector 35807  IntersectionExampleScenario.node[52].veinsmobility  posy  ETV
35684	926473 5298 7815 13531 123.75 162.75 157 0.97223939240464 11.648172402475 490.69905132932 2635.5622999141
35683	931771 4894 7815 13531 123.75 162.75 157 -3.3914604187012 2.5 38.680875778198 229.86442976719
35682	936665 5244 7786 13531 123.5 162.75 158 5.6500000953674 15.64999961853 2211.3199911118 31902.688469777
35681	941909 5482 7757 13531 123.25 162.75 159 184.17810058594 486.85000610352 63331.294555664 26999526.818042
35680	947391 5499 7757 13531 123.25 162.75 159 236.16119384766 486.85000610352 68995.287597656 30898485.636694
vector 35813  IntersectionExampleScenario.node[53].veinsmobility  posx  ETV
vector 35814  IntersectionExampleScenario.node[53].veinsmobility  posy  ETV
vector 35808  IntersectionExampleScenario.node[52].veinsmobility  speed  ETV
vector 35809  IntersectionExampleScenario.node[52].veinsmobility  acceleration  ETV
vector 35810  IntersectionExampleScenario.node[52].veinsmobility  co2emission  ETV
vector 35815  IntersectionExampleScenario.node[53].veinsmobility  speed  ETV
vector 35816  IntersectionExampleScenario.node[53].veinsmobility  acceleration  ETV
vector 35817  IntersectionExampleScenario.node[53].veinsmobility  co2emission  ETV
vector 35820  IntersectionExampleScenario.node[54].veinsmobility  posx  ETV
vector 35821  IntersectionExampleScenario.node[54].veinsmobility  posy  ETV
vector 35822  IntersectionExampleScenario.node[54].veinsmobility  speed  ETV
35712	953770 4894 8290 13771 127.5 164.5 149 0.973 12.270261780033 507.39261379069 3199.3040772799
35711	958664 4752 8290 13771 127.5 164.5 149 -3.5061645507812 2.5 41.057416915894 247.6542983428
35710	963416 4965 8257 13771 127.25 164.5 150 5.6500000953674 16.511117935181 2209.915977478 33345.05018627
35709	968381 5225 8224 13771 127 164.5 151 238.75366210938 785.82187652588 79053.46648407 45362795.745365
35708	973606 5238 8224 13771 127 164.5 151 483.14999389648 483.14999389648 72955.649078369 35248521.406928
vector 35823  IntersectionExampleScenario.node[54].veinsmobility  acceleration  ETV
vector 35824  IntersectionExampleScenario.node[54].veinsmobility  co2emission  ETV
vector 35827  IntersectionExampleScenario.node[55].veinsmobility  posx  ETV
vector 35828  IntersectionExampleScenario.node[55].veinsmobility  posy  ETV
vector 35829  IntersectionExampleScenario.node[55].veinsmobility  speed  ETV
vector 35830  IntersectionExampleScenario.node[55].veinsmobility  acceleration  ETV
vector 35831  IntersectionExampleScenario.node[55].veinsmobility  co2emission  ETV
35705	979414 5398 8224 14058 127 166.5 159 0.973 11.54047740176 470.83588645342 2359.5791686553
35704	984812 5044 8224 14058 127 166.5 159 -3.7016067504883 2.5 37.15309715271 189.47232385859
35703	989856 5317 8193 14058 126.75 166.5 160 5.6500000953674 15.5 2259.6062383652 32485.877331245
35702	995173 5548 8162 14058 126.5 166.5 161 172.9296875 732.72348022461 71336.294113159 36051192.54263
35701	1000721 5587 8162 14058 126.5 166.5 161 486.85000610352 486.85000610352 78382.850982666 38160691.479322
35747	1006308 5176 9029 14629 132.5 170.75 154 0.973 12.099024792222 503.06032169341 2900.0431997035
35746	1011484 4899 9029 14629 132.5 170.75 154 -3.2763366699219 2.5 40.038900375366 253.89157132808
35745	1016383 5104 8988 14629 132.25 170.75 155 5.6500000953674 16.27499961853 2209.5417699814 32542.58226838
35744	1021487 5413 8947 14629 132 170.75 156 483.11978149414 785.82187652588 89236.883644104 52795406.812344
35743	1026900 5423 8947 14629 132 170.75 156 483.14999389648 733.59259033203 83589.823303223 45727610.559691
35628	1032323 8316 5711 14779 102.5 172 279 0.973 11.648172402475 655.36360440209 3036.1653649706
35627	1040639 7122 5711 14779 102.5 172 279 -28.502704620361 4 38.850629806519 1208.0331819651
35626	1047761 7696 5686 14779 102.25 172 280 0 15.64999961853 2189.9585065842 31556.064856143
35625	1055457 9682 5661 14779 102 172 281 483.14999389648 735.29400634766 144243.8558197 75212810.40829
35624	1065139 9662 5661 14779 102 172 281 184.17810058594 486.85000610352 120868.62991333 54131712.280386
35642	1074801 8345 6281 14981 108.5 173.75 262 0.973 11.395776984907 612.44866635297 2759.3653907657
35641	1083146 8930 6281 14981 108.5 173.75 262 -3.9517509937286 2.5 36.813589096069 329.05103399746
35640	1092076 9010 6256 14981 108.25 173.75 263 0 15.298033714294 2214.1608469617 29025.823933909
35639	1101086 9118 6231 14981 108 173.75 264 483.14999389648 483.14999389648 127551.59838867 61626553.982973
35638	1110204 9063 6231 14981 108 173.75 264 184.17810058594 733.15892028809 119616.26626587 58435636.65165
vector 35834  IntersectionExampleScenario.node[56].veinsmobility  posx  ETV
vector 35835  IntersectionExampleScenario.node[56].veinsmobility  posy  ETV
35656	1119421 8283 6548 15196 111 175.75 260 0.973 11.200708441096 622.13911638653 2703.4541583979
35655	1127704 8518 6548 15196 111 175.75 260 -4.5 2.5 37.492597579956 366.85083968821
35654	1136222 8860 6521 15196 110.75 175.75 261 0 15.076419830322 2282.1434645373 29524.746465573
35653	1145082 9059 6493 15196 110.5 175.75 262 483.14999389648 483.14999389648 126585.29840088 61159686.149769
35652	1154141 9022 6493 15196 110.5 175.75 262 168.58435058594 734.35968017578 116209.26705933 56142447.715372
vector 35841  IntersectionExampleScenario.node[57].veinsmobility  posx  ETV
vector 35842  IntersectionExampleScenario.node[57].veinsmobility  posy  ETV
vector 35836  IntersectionExampleScenario.node[56].veinsmobility  speed  ETV
vector 35837  IntersectionExampleScenario.node[56].veinsmobility  acceleration  ETV
vector 35838  IntersectionExampleScenario.node[56].veinsmobility  co2emission  ETV
vector 35843  IntersectionExampleScenario.node[57].veinsmobility  speed  ETV
vector 35844  IntersectionExampleScenario.node[57].veinsmobility  acceleration  ETV
vector 35845  IntersectionExampleScenario.node[57].veinsmobility  co2emission  ETV
35670	1163811 6988 7574 15397 121.5 177.5 225 0.973 12.099024792222 588.67095087631 3106.8547981865
35669	1170799 7405 7574 15397 121.5 177.5 225 -3.6574800014496 2.5000009536743 41.057416915894 334.32094676541
35668	1178204 7545 7549 15397 121.25 177.5 226 0 16.27499961853 2207.5194463208 29262.889342524
35667	1185749 7866 7524 15397 121 177.5 227 483.14999389648 732.67279052734 117723.50106812 62101911.390742
35666	1193615 7848 7524 15397 121 177.5 227 184.17810058594 486.85000610352 93249.56829834 40171118.540001
35677	1201463 7555 7703 15688 122.75 180 230 0.973 11.648172402475 610.95200115394 2988.5383667717
35676	1209018 7299 7703 15688 122.75 180 230 -4.5 2.5 38.850629806519 428.37188585458
35675	1216317 7734 7676 15688 122.5 180 231 0 15.64999961853 2293.6077008843 30407.245952916
35674	1224051 8052 7649 15688 122.25 180 232 483.14999389648 732.89649963379 120416.30813599 63586495.330985
35673	1232103 8032 7649 15688 122.25 180 232 162.90466308594 487.06588745117 93569.994384766 39960980.996953
vector 35848  IntersectionExampleScenario.node[58].veinsmobility  posx  ETV
vector 35849  IntersectionExampleScenario.node[58].veinsmobility  posy  ETV
vector 35855  IntersectionExampleScenario.node[59].veinsmobility  posx  ETV
vector 35856  IntersectionExampleScenario.node[59].veinsmobility  posy  ETV
vector 35850  IntersectionExampleScenario.node[58].veinsmobility  speed  ETV
vector 35851  IntersectionExampleScenario.node[58].veinsmobility  acceleration  ETV
vector 35852  IntersectionExampleScenario.node[58].veinsmobility  co2emission  ETV
vector 35857  IntersectionExampleScenario.node[59].veinsmobility  speed  ETV
vector 35858  IntersectionExampleScenario.node[59].veinsmobility  acceleration  ETV
vector 35859  IntersectionExampleScenario.node[59].veinsmobility  co2emission  ETV
35719	1240937 7262 8392 16147 128.25 183.75 223 0.973 10.756497587458 567.57133502516 2710.0218062448
35718	1248199 7165 8392 16147 128.25 183.75 223 -4.5 2.5000009536743 32.739515304565 381.63742863386
35717	1255364 7570 8358 16147 128 183.75 224 0 14.39999961853 2244.6411371231 28118.878750774
35716	1262934 7833 8323 16147 127.75 183.75 225 483.14999389648 483.14999389648 108708.74862671 52522631.235489
35715	1270767 7803 8323 16147 127.75 183.75 225 178.86492919922 734.61766052246 100136.62416077 49183378.098936
35733	1278570 7221 8571 16378 129.5 185.75 226 0.973 11.36141391502 613.07883657605 3027.9393860509
35732	1285791 7325 8571 16378 129.5 185.75 226 -4.5 2.5 37.32285118103 434.8245595339
35731	1293116 7548 8534 16378 129.25 185.75 227 0 15.25 2283.6182428598 28971.367177517
35730	1300664 7933 8497 16378 129 185.75 228 235.91217041016 483.14999389648 101778.41403198 46502992.61228
35729	1308597 7903 8497 16378 129 185.75 228 160.248046875 483.14999389648 90387.147613525 38045684.354957
35691	1316500 7580 7877 16404 124.25 186 248 0.973 11.810082123732 628.1139259185 3108.1220430552
35690	1324080 6808 7877 16404 124.25 186 248 -6.9388580322266 4 39.869146347046 481.49561185204
35689	1330888 7164 7846 16404 124 186 249 0 15.875 2183.3810286522 31318.381264493
35688	1338052 8620 7815 16404 123.75 186 250 486.85000610352 734.37205505371 129787.2618103 68445539.596028
35687	1346672 8681 7815 16404 123.75 186 250 486.63604736328 785.82187652588 136432.06560516 76496235.960836
vector 35862  IntersectionExampleScenario.node[60].veinsmobility  posx  ETV
vector 35863  IntersectionExampleScenario.node[60].veinsmobility  posy  ETV
vector 35864  IntersectionExampleScenario.node[60].veinsmobility  speed  ETV
vector 35865  IntersectionExampleScenario.node[60].veinsmobility  acceleration  ETV
vector 35866  IntersectionExampleScenario.node[60].veinsmobility  co2emission  ETV
35698	1355754 8426 7943 16656 124.75 188.5 256 0.973 10.758563666583 596.07053598737 2460.526357161
35697	1364180 8476 7943 16656 124.75 188.5 256 -4.5 2.5 33.927785873413 384.09114393966
35696	1372656 8534 7910 16656 124.5 188.5 257 0 14.402916908264 2312.3012356805 30128.490818705
35695	1381190 8974 7877 16656 124.25 188.5 258 486.85000610352 486.85000610352 125607.30157471 61151915.538292
35694	1390164 8944 7877 16656 124.25 188.5 258 235.54309082031 809.56562805176 135479.15180969 76306559.516553
35726	1399108 7955 8462 16748 128.75 189.5 244 0.973 11.548780797668 648.59362869333 2983.6389669477
35725	1407063 8168 8462 16748 128.75 189.5 244 -4.5 2.5 39.446298599243 447.10930789494
35724	1415231 8351 8427 16748 128.5 189.5 245 0 15.977578163147 2291.8296812624 31152.874946915
35723	1423582 8570 8392 16748 128.25 189.5 246 486.85000610352 486.85000610352 119765.10150146 58307640.396976
35722	1432152 8529 8392 16748 128.25 189.5 246 238.06597900391 806.58395385742 129356.27606201 72666423.822905
vector 35869  IntersectionExampleScenario.node[61].veinsmobility  posx  ETV
vector 35870  IntersectionExampleScenario.node[61].veinsmobility  posy  ETV
vector 35871  IntersectionExampleScenario.node[61].veinsmobility  speed  ETV
vector 35876  IntersectionExampleScenario.node[62].veinsmobility  posx  ETV
vector 35877  IntersectionExampleScenario.node[62].veinsmobility  posy  ETV
vector 35872  IntersectionExampleScenario.node[61].veinsmobility  acceleration  ETV
vector 35873  IntersectionExampleScenario.node[61].veinsmobility  co2emission  ETV
vector 35878  IntersectionExampleScenario.node[62].veinsmobility  speed  ETV
vector 35883  IntersectionExampleScenario.node[63].veinsmobility  posx  ETV
vector 35884  IntersectionExampleScenario.node[63].veinsmobility  posy  ETV
vector 35879  IntersectionExampleScenario.node[62].veinsmobility  acceleration  ETV
vector 35880  IntersectionExampleScenario.node[62].veinsmobility  co2emission  ETV
vector 35885  IntersectionExampleScenario.node[63].veinsmobility  speed  ETV
vector 35886  IntersectionExampleScenario.node[63].veinsmobility  acceleration  ETV
vector 35887  IntersectionExampleScenario.node[63].veinsmobility  co2emission  ETV
35761	1441884 6378 10628 16964 142.5 191.75 198 0.973 11.200708441096 547.67747610149 2598.7931262454
35760	1448262 6522 10628 16964 142.5 191.75 198 -2.1004409790039 2.5000009536743 37.32285118103 295.99267537033
35759	1454784 6800 10589 16964 142.25 191.75 199 1.9324572086334 15.043384552002 2217.901188612 28951.933922985
35758	1461584 7000 10550 16964 142 191.75 200 486.85000610352 486.85000610352 97370.001220703 47404585.688598
35757	1468584 6972 10550 16964 142 191.75 200 236.53833007812 785.82187652588 104702.68514252 59031480.143903
vector 35890  IntersectionExampleScenario.node[64].veinsmobility  posx  ETV
vector 35891  IntersectionExampleScenario.node[64].veinsmobility  posy  ETV
vector 35892  IntersectionExampleScenario.node[64].veinsmobility  speed  ETV
vector 35893  IntersectionExampleScenario.node[64].veinsmobility  acceleration  ETV
vector 35894  IntersectionExampleScenario.node[64].veinsmobility  co2emission  ETV
vector 35897  IntersectionExampleScenario.node[65].veinsmobility  posx  ETV
vector 35898  IntersectionExampleScenario.node[65].veinsmobility  posy  ETV
vector 35904  IntersectionExampleScenario.node[66].veinsmobility  posx  ETV
vector 35905  IntersectionExampleScenario.node[66].veinsmobility  posy  ETV
vector 35899  IntersectionExampleScenario.node[65].veinsmobility  speed  ETV
vector 35906  IntersectionExampleScenario.node[66].veinsmobility  speed  ETV
vector 35900  IntersectionExampleScenario.node[65].veinsmobility  acceleration  ETV
vector 35901  IntersectionExampleScenario.node[65].veinsmobility  co2emission  ETV
vector 35907  IntersectionExampleScenario.node[66].veinsmobility  acceleration  ETV
vector 35908  IntersectionExampleScenario.node[66].veinsmobility  co2emission  ETV
35803	1476759 5341 12898 17596 158 196.75 156 0.973 11.54047740176 464.22155859669 2334.0592177619
35802	1482100 5012 12898 17596 158 196.75 156 -3.6592102050781 2.5 37.15309715271 188.38132928219
35801	1487112 5260 12863 17596 157.75 196.75 157 5.6500000953674 15.5 2214.2034301758 31798.541491031
35800	1492372 5531 12827 17596 157.5 196.75 158 486.85000610352 486.85000610352 76922.300964355 37449622.693993
35799	1497903 5519 12827 17596 157.5 196.75 158 237.37652587891 785.82187652588 82389.467063904 47148752.31583
vector 35911  IntersectionExampleScenario.node[67].veinsmobility  posx  ETV
vector 35912  IntersectionExampleScenario.node[67].veinsmobility  posy  ETV
vector 35913  IntersectionExampleScenario.node[67].veinsmobility  speed  ETV
vector 35914  IntersectionExampleScenario.node[67].veinsmobility  acceleration  ETV
vector 35915  IntersectionExampleScenario.node[67].veinsmobility  co2emission  ETV
vector 35918  IntersectionExampleScenario.node[68].veinsmobility  posx  ETV
vector 35919  IntersectionExampleScenario.node[68].veinsmobility  posy  ETV
vector 35920  IntersectionExampleScenario.node[68].veinsmobility  speed  ETV
vector 35925  IntersectionExampleScenario.node[69].veinsmobility  posx  ETV
vector 35926  IntersectionExampleScenario.node[69].veinsmobility  posy  ETV
vector 35921  IntersectionExampleScenario.node[68].veinsmobility  acceleration  ETV
vector 35922  IntersectionExampleScenario.node[68].veinsmobility  co2emission  ETV
vector 35927  IntersectionExampleScenario.node[69].veinsmobility  speed  ETV
vector 35928  IntersectionExampleScenario.node[69].veinsmobility  acceleration  ETV
vector 35929  IntersectionExampleScenario.node[69].veinsmobility  co2emission  ETV
35775	1504625 6648 11531 18068 148.5 200.25 208 0.973 11.648172402475 577.44560432252 2926.451943201
35774	1511273 6123 11531 18068 148.5 200.25 208 -7.7750473022461 4 38.511121749878 474.8415929463
35773	1517396 6422 11494 18068 148.25 200.25 209 0 15.64999961853 2179.3993096352 30681.17023873
35772	1523818 7338 11457 18068 148 200.25 210 486.63604736328 785.82187652588 116638.62882233 66726026.197968
35771	1531156 7284 11457 18068 148 200.25 210 236.36547851562 483.14999389648 93263.420837402 42443551.378813
vector 35932  IntersectionExampleScenario.node[70].veinsmobility  posx  ETV
vector 35933  IntersectionExampleScenario.node[70].veinsmobility  posy  ETV
35782	1538594 6546 11787 18205 150.25 201.25 205 0.973 12.099024792222 612.65359834782 3296.1018859685
35781	1545140 6346 11787 18205 150.25 201.25 205 -7.0093479156494 4 41.716756820679 510.43622313607
35780	1551486 6643 11750 18205 150 201.25 206 0 16.27499961853 2200.1649227962 32525.680644907
35779	1558129 7207 11713 18205 149.75 201.25 207 184.17810058594 486.85000610352 86303.197845459 37922764.724168
35778	1565336 7236 11713 18205 149.75 201.25 207 237.38916015625 486.85000610352 92817.868011475 42634116.994265
vector 35934  IntersectionExampleScenario.node[70].veinsmobility  speed  ETV
vector 35935  IntersectionExampleScenario.node[70].veinsmobility  acceleration  ETV
vector 35936  IntersectionExampleScenario.node[70].veinsmobility  co2emission  ETV
35789	1572819 6397 12212 18345 153.25 202.25 197 0.973 11.200708441096 536.74013818606 2624.4911778488
35788	1579216 6447 12212 18345 153.25 202.25 197 -3.9556052684784 2.5000002384186 35.964826583862 339.74138820252
35787	1585663 6716 12175 18345 153 202.25 198 0 15.02499961853 2207.8675114587 29157.839757505
35786	1592379 6947 12138 18345 152.75 202.25 199 483.06875610352 785.82187652588 111690.08562469 64601292.677661
35785	1599326 6961 12138 18345 152.75 202.25 199 483.14999389648 733.60249328613 104905.15898132 56379741.048104
35810	1606287 5310 13599 18415 163.25 202.75 159 0.973 11.990504229548 550.34994870725 3405.6624023973
35809	1611597 5029 13599 18415 163.25 202.75 159 -3.6143989562988 2.5 39.869146347046 315.64786481276
35808	1616626 5344 13564 18415 163 202.75 160 5.6500000953674 16.125 2223.8071470261 31893.386786082
35807	1621970 5607 13531 18415 162.75 202.75 161 184.17810058594 734.91160583496 72005.894790649 36318707.52457
35806	1627577 5636 13531 18415 162.75 202.75 161 486.85000610352 486.85000610352 78382.850982666 38160691.479322
35796	1633213 6540 12544 18651 155.5 204.5 197 0.973 11.200708441096 579.37066881859 2868.4423644496
35795	1639753 6470 12544 18651 155.5 204.5 197 -4.5 2.5 37.832105636597 399.05686592708
35794	1646223 6676 12507 18651 155.25 204.5 198 3.4920425415039 15.169220924377 2275.4686369896 29754.621195296
35793	1652899 6947 12470 18651 155 204.5 199 483.1223449707 802.70781707764 113666.39631653 67040514.508118
35792	1659846 6958 12470 18651 155 204.5 199 483.14999389648 733.58818054199 104653.26968384 56092344.894053
35817	1666804 5403 13634 18750 163.5 205.25 168 0.973 11.990504229548 537.88756217252 3199.022474133
35816	1672207 5464 13634 18750 163.5 205.25 168 -4.5 2.5 40.038900375366 310.23447589075
35815	1677671 5674 13599 18750 163.25 205.25 169 5.6500000953674 16.125 2210.0512046814 30405.849074744
35814	1683345 5934 13564 18750 163 205.25 170 238.82843017578 785.82187652588 89607.197563171 51287600.397863
35813	1689279 5949 13564 18750 163 205.25 170 483.14999389648 483.14999389648 82135.498962402 39683765.822369
vector 35939  IntersectionExampleScenario.node[71].veinsmobility  posx  ETV
vector 35940  IntersectionExampleScenario.node[71].veinsmobility  posy  ETV
vector 35941  IntersectionExampleScenario.node[71].veinsmobility  speed  ETV
vector 35942  IntersectionExampleScenario.node[71].veinsmobility  acceleration  ETV
vector 35943  IntersectionExampleScenario.node[71].veinsmobility  co2emission  ETV
vector 35946  IntersectionExampleScenario.node[72].veinsmobility  posx  ETV
vector 35947  IntersectionExampleScenario.node[72].veinsmobility  posy  ETV
vector 35948  IntersectionExampleScenario.node[72].veinsmobility  speed  ETV
vector 35949  IntersectionExampleScenario.node[72].veinsmobility  acceleration  ETV
vector 35950  IntersectionExampleScenario.node[72].veinsmobility  co2emission  ETV
35845	1696030 5221 15281 19910 176.5 214.5 153 0.973 11.648172402475 474.925234236 2481.352005492
35844	1701251 4805 15281 19910 176.5 214.5 153 -3.4320068359375 2.5 39.020376205444 194.78216897432
35843	1706056 5149 15252 19910 176.25 214.5 154 5.6500000953674 15.64999961853 2217.0800733566 32596.395712939
35842	1711205 5405 15223 19910 176 214.5 155 236.82946777344 785.82187652588 80855.384376526 46285427.655232
35841	1716610 5424 15223 19910 176 214.5 155 483.14999389648 483.14999389648 74888.249053955 36182257.073337
35838	1722034 5259 15252 19941 176.25 214.75 155 0.973 12.099024792222 522.88555793281 3043.2892852894
35837	1727293 4871 15252 19941 176.25 214.75 155 -4.4999046325684 2.5 40.887662887573 311.71037811158
35836	1732164 5130 15223 19941 176 214.75 156 5.6500000953674 16.27499961853 2185.5224571228 32176.464948877
35835	1737294 5474 15196 19941 175.75 214.75 157 184.17810058594 483.1955871582 62378.734008789 26493393.279981
35834	1742768 5491 15196 19941 175.75 214.75 157 486.85000610352 733.6136932373 84347.430603027 46211780.572786
35740	1748259 10249 8908 20202 131.75 217 342 0.973 11.810082123732 774.82558378686 3446.123460463
35739	1758508 9772 8908 20202 131.75 217 342 -6.8020839691162 4 41.227170944214 650.67145105717
35738	1768280 9985 8869 20202 131.5 217 343 0 16.013872146606 2298.098211363 30415.850528208
35737	1778265 11941 8830 20202 131.25 217 344 235.52301025391 483.14999389648 158279.32064819 73945970.013903
35736	1790206 11990 8830 20202 131.25 217 344 155.3271484375 483.36395263672 144909.9312439 63741592.561282
35754	1802196 9469 10321 20567 140.5 220.5 321 0.973 11.36141391502 675.51699489401 2960.0467162692
35753	1811665 9646 10321 20567 140.5 220.5 321 -4.5 2.5 36.134572982788 443.39456003895
35752	1821311 9659 10282 20567 140.25 220.5 322 0 15.25 2188.3206280982 26478.659066836
35751	1830970 11288 10243 20567 140 220.5 323 235.19610595703 483.14999389648 147470.79147339 68518283.850781
35750	1842258 11277 10243 20567 140 220.5 323 184.17810058594 483.17678833008 136959.29406738 60209429.919205
35768	1853535 10006 10939 20772 144.5 222.75 314 0.973 11.36141391502 701.95497640886 3064.0055443003
35767	1863541 10202 10939 20772 144.5 222.75 314 -4.5 2.5000009536743 38.001859664917 487.4554035098
35766	1873743 10264 10900 20772 144.25 222.75 315 0 15.25 2204.4839357249 27494.175181188
35765	1884007 11052 10861 20772 144 222.75 316 237.31982421875 483.14999389648 144471.89743042 67177828.191956
35764	1895059 10974 10861 20772 144 222.75 316 177.97814941406 483.26135253906 132929.66744995 58062823.775544
vector 35953  IntersectionExampleScenario.node[73].veinsmobility  posx  ETV
vector 35954  IntersectionExampleScenario.node[73].veinsmobility  posy  ETV
vector 35955  IntersectionExampleScenario.node[73].veinsmobility  speed  ETV
35824	1906265 7694 13806 20900 164.75 224.25 239 0.973 11.648172402475 599.37837755631 2941.0901749809
35823	1913959 8008 13806 20900 164.75 224.25 239 -3.939332485199 2.5 38.341367721558 338.3944884438
35822	1921967 8171 13771 20900 164.5 224.25 240 0 15.64999961853 2215.5554718338 29345.182010253
35821	1930138 8436 13736 20900 164.25 224.25 241 483.14999389648 483.14999389648 116439.14852905 56257573.901123
35820	1938574 8397 13736 20900 164.25 224.25 241 184.17810058594 732.6618347168 107711.38128662 52286255.083223
vector 35956  IntersectionExampleScenario.node[73].veinsmobility  acceleration  ETV
vector 35957  IntersectionExampleScenario.node[73].veinsmobility  co2emission  ETV
vector 35960  IntersectionExampleScenario.node[74].veinsmobility  posx  ETV
vector 35961  IntersectionExampleScenario.node[74].veinsmobility  posy  ETV
vector 35962  IntersectionExampleScenario.node[74].veinsmobility  speed  ETV
vector 35963  IntersectionExampleScenario.node[74].veinsmobility  acceleration  ETV
vector 35964  IntersectionExampleScenario.node[74].veinsmobility  co2emission  ETV
vector 35967  IntersectionExampleScenario.node[75].veinsmobility  posx  ETV
vector 35968  IntersectionExampleScenario.node[75].veinsmobility  posy  ETV
vector 35969  IntersectionExampleScenario.node[75].veinsmobility  speed  ETV
vector 35970  IntersectionExampleScenario.node[75].veinsmobility  acceleration  ETV
vector 35971  IntersectionExampleScenario.node[75].veinsmobility  co2emission  ETV
35866	1947942 5443 16508 21262 187 227.75 164 0.973 11.648172402475 559.27406395974 3293.4371135248
35865	1953385 5102 16508 21262 187 227.75 164 -3.4775333404541 2.5 39.529638290405 346.76168881154
35864	1958487 5464 16481 21262 186.75 227.75 165 5.6500000953674 15.64999961853 2183.026070118 30306.155870981
35863	1963951 5804 16454 21262 186.5 227.75 166 237.42309570312 483.14999389648 72199.841430664 32322848.114926
35862	1969755 5786 16454 21262 186.5 227.75 166 184.17810058594 483.34176635742 65985.495849609 27960232.984894
vector 35974  IntersectionExampleScenario.node[76].veinsmobility  posx  ETV
vector 35975  IntersectionExampleScenario.node[76].veinsmobility  posy  ETV
vector 35976  IntersectionExampleScenario.node[76].veinsmobility  speed  ETV
vector 35977  IntersectionExampleScenario.node[76].veinsmobility  acceleration  ETV
vector 35978  IntersectionExampleScenario.node[76].veinsmobility  co2emission  ETV
vector 35981  IntersectionExampleScenario.node[77].veinsmobility  posx  ETV
vector 35982  IntersectionExampleScenario.node[77].veinsmobility  posy  ETV
vector 35983  IntersectionExampleScenario.node[77].veinsmobility  speed  ETV
vector 35988  IntersectionExampleScenario.node[78].veinsmobility  posx  ETV
vector 35989  IntersectionExampleScenario.node[78].veinsmobility  posy  ETV
vector 35984  IntersectionExampleScenario.node[77].veinsmobility  acceleration  ETV
vector 35985  IntersectionExampleScenario.node[77].veinsmobility  co2emission  ETV
vector 35990  IntersectionExampleScenario.node[78].veinsmobility  speed  ETV
vector 35991  IntersectionExampleScenario.node[78].veinsmobility  acceleration  ETV
vector 35992  IntersectionExampleScenario.node[78].veinsmobility  co2emission  ETV
vector 35995  IntersectionExampleScenario.node[79].veinsmobility  posx  ETV
vector 35996  IntersectionExampleScenario.node[79].veinsmobility  posy  ETV
vector 35997  IntersectionExampleScenario.node[79].veinsmobility  speed  ETV
vector 35998  IntersectionExampleScenario.node[79].veinsmobility  acceleration  ETV
vector 35999  IntersectionExampleScenario.node[79].veinsmobility  co2emission  ETV
35831	1977145 8012 13985 21650 166 231.25 262 0.97223939240464 11.648172402475 633.43884855492 3001.8810609596
35830	1985157 7218 13985 21650 166 231.25 262 -7.1630640029907 4 38.680875778198 471.71258299252
35829	1992375 7586 13948 21650 165.75 231.25 263 0 15.64999961853 2204.4856579304 31271.545429211
35828	1999961 9235 13911 21650 165.5 231.25 264 236.21789550781 486.85000610352 120125.44360352 55795101.632676
35827	2009196 9230 13911 21650 165.5 231.25 264 483.14999389648 785.82187652588 143282.10700226 79874127.204008
35859	2018426 6453 15838 21731 181.25 232 204 0.973 12.553400930962 594.12927441307 3439.2213639975
35858	2024879 6662 15838 21731 181.25 232 204 -3.7851614952087 2.5000004768372 42.585195541382 371.05184111877
35857	2031541 6834 15807 21731 181 232 205 0 16.89999961853 2180.4869549051 30139.41373424
35856	2038375 7209 15776 21731 180.75 232 206 486.85000610352 731.89695739746 107911.35388184 57483367.787663
35855	2045584 7192 15776 21731 180.75 232 206 486.73251342773 785.82187652588 115227.54482269 66270214.618974
vector 36002  IntersectionExampleScenario.node[80].veinsmobility  posx  ETV
vector 36003  IntersectionExampleScenario.node[80].veinsmobility  posy  ETV
vector 36004  IntersectionExampleScenario.node[80].veinsmobility  speed  ETV
vector 36005  IntersectionExampleScenario.node[80].veinsmobility  acceleration  ETV
vector 36006  IntersectionExampleScenario.node[80].veinsmobility  co2emission  ETV
35880	2053177 5810 16910 22097 191.25 235.5 178 0.973 11.648172402475 534.45720573042 2911.8958802069
35879	2058987 5673 16910 22097 191.25 235.5 178 -2.1305847167969 2.5000019073486 38.171613693237 292.32844644401
35878	2064660 5956 16885 22097 191 235.5 179 5.2873029708862 15.64999961853 2182.6605830193 28840.594948396
35877	2070616 6292 16860 22097 190.75 235.5 180 486.85000610352 732.47808837891 95796.097808838 51945297.082713
35876	2076908 6283 16860 22097 190.75 235.5 180 486.85000610352 785.82187652588 102529.36833954 60166994.983711
35901	2083191 5694 17200 22122 193.75 235.75 169 0.973 11.990504229548 557.03280515227 3111.1034794305
35900	2088885 5377 17200 22122 193.75 235.75 169 -4.5 2.5 41.396924972534 334.51137997914
35899	2094262 5701 17167 22122 193.5 235.75 170 5.6500000953674 16.125 2279.5028047562 32416.293165329
35898	2099963 5987 17134 22122 193.25 235.75 171 486.85000610352 486.85000610352 83251.351043701 40530920.763752
35897	2105950 5962 17134 22122 193.25 235.75 171 237.03857421875 801.41563415527 90986.078323364 52762902.273969
vector 36009  IntersectionExampleScenario.node[81].veinsmobility  posx  ETV
vector 36010  IntersectionExampleScenario.node[81].veinsmobility  posy  ETV
vector 36011  IntersectionExampleScenario.node[81].veinsmobility  speed  ETV
vector 36012  IntersectionExampleScenario.node[81].veinsmobility  acceleration  ETV
vector 36013  IntersectionExampleScenario.node[81].veinsmobility  co2emission  ETV
35915	2112313 5320 17765 22378 198 238.25 162 0.973 11.648172402475 476.27060788743 2602.1099046129
35914	2117633 5280 17765 22378 198 238.25 162 -2.9576606750488 2.5 38.850629806519 182.23177843821
35913	2122913 5485 17730 22378 197.75 238.25 163 5.6500000953674 15.64999961853 2268.6371088028 32249.862890937
35912	2128398 5740 17695 22378 197.5 238.25 164 486.85000610352 486.85000610352 79843.401000977 38871760.264651
35911	2134138 5710 17695 22378 197.5 238.25 164 236.12854003906 797.97970581055 86669.659133911 50216494.569582
vector 36016  IntersectionExampleScenario.node[82].veinsmobility  posx  ETV
vector 36017  IntersectionExampleScenario.node[82].veinsmobility  posy  ETV
vector 36018  IntersectionExampleScenario.node[82].veinsmobility  speed  ETV
vector 36019  IntersectionExampleScenario.node[82].veinsmobility  acceleration  ETV
vector 36020  IntersectionExampleScenario.node[82].veinsmobility  co2emission  ETV
35852	2140249 7896 15807 23165 181 245.25 258 0.973 11.648172402475 624.18541258103 2964.0976067118
35851	2148145 7136 15807 23165 181 245.25 258 -7.4922199249268 4 38.171613693237 479.41769177267
35850	2155281 7470 15776 23165 180.75 245.25 259 0 15.64999961853 2175.1207141876 30519.901571347
35849	2162751 9089 15746 23165 180.5 245.25 260 486.63604736328 785.82187652588 141590.24907684 79183550.312909
35848	2171840 9025 15746 23165 180.5 245.25 260 237.46997070312 483.14999389648 117450.21200562 54132922.502081
35908	2180865 6681 17200 23194 193.75 245.5 208 0.973 11.450879080643 568.19373413523 2821.9994528682
35907	2187546 6158 17200 23194 193.75 245.5 208 -8.2128324508667 4 36.813589096069 486.59837192663
35906	2193704 6503 17167 23194 193.5 245.5 209 0 15.375 2205.7468724251 30668.924908397
35905	2200207 7305 17134 23194 193.25 245.5 210 184.17810058594 732.10963439941 95344.352203369 47501006.781338
35904	2207512 7351 17134 23194 193.25 245.5 210 486.85000610352 486.85000610352 102238.50128174 49774814.973028
35887	2214863 7035 16964 23281 191.75 246.25 219 0.97223939240464 11.648172402475 575.42768614821 2922.6580779515
35886	2221898 7239 16964 23281 191.75 246.25 219 -3.8429980278015 2.5 38.680875778198 340.31456940896
35885	2229137 7555 16937 23281 191.5 246.25 220 0 15.64999961853 2217.0726702455 29762.622643015
35884	2236692 7710 16910 23281 191.25 246.25 221 236.37457275391 785.82187652588 114811.68712616 63796526.7891
35883	2244402 7736 16910 23281 191.25 246.25 221 483.14999389648 483.14999389648 106776.14865112 51588895.56908
35922	2252138 6348 17998 23524 199.75 248.5 196 0.973 10.756497587458 512.03087442814 2380.985013332
35921	2258486 6332 17998 23524 199.75 248.5 196 -3.5326595306396 2.5 32.739515304565 279.86018525752
35920	2264818 6590 17965 23524 199.5 248.5 197 2.385190486908 14.39999961853 2179.4999670982 26917.750856341
35919	2271408 6901 17932 23524 199.25 248.5 198 184.17810058594 483.21871948242 80016.757751465 34220903.661075
35918	2278309 6924 17932 23524 199.25 248.5 198 486.85000610352 732.33554077148 105308.88774109 57065965.464456
35929	2285233 6540 18068 23724 200.25 250.5 202 0.973 11.200708441096 536.31921193031 2483.4432885699
35928	2291773 6789 18068 23724 200.25 250.5 202 -4.5 2.5000009536743 35.285810470581 312.14674137611
35927	2298562 7085 18033 23724 200 250.5 203 2.0208508968353 15.02499961853 2212.3832323551 27744.35946135
35926	2305647 7124 17998 23724 199.75 250.5 204 483.14291381836 785.82187652588 114924.50533295 66641871.376856
35925	2312771 7127 17998 23724 199.75 250.5 204 483.14999389648 734.87409973145 107524.29211426 57783060.292597
vector 36023  IntersectionExampleScenario.node[83].veinsmobility  posx  ETV
vector 36024  IntersectionExampleScenario.node[83].veinsmobility  posy  ETV
vector 36025  IntersectionExampleScenario.node[83].veinsmobility  speed  ETV
vector 36026  IntersectionExampleScenario.node[83].veinsmobility  acceleration  ETV
vector 36027  IntersectionExampleScenario.node[83].veinsmobility  co2emission  ETV
35943	2320299 5673 19250 23867 209.25 252 172 0.973 11.200708441096 552.71244293719 3030.7684992602
35942	2325972 5782 19250 23867 209.25 252 172 -4.5 2.5 36.066415786743 386.19646263049
35941	2331754 5889 19219 23867 209 252 173 4.044741153717 15.02499961853 2184.5718421936 29009.721657323
35940	2337643 6059 19188 23867 208.75 252 174 184.17810058594 483.34832763672 69427.122344971 29497525.847253
35939	2343702 6084 19188 23867 208.75 252 174 486.85000610352 733.40473937988 93283.966918945 50994970.329001
vector 36030  IntersectionExampleScenario.node[84].veinsmobility  posx  ETV
vector 36031  IntersectionExampleScenario.node[84].veinsmobility  posy  ETV
vector 36032  IntersectionExampleScenario.node[84].veinsmobility  speed  ETV
vector 36033  IntersectionExampleScenario.node[84].veinsmobility  acceleration  ETV
vector 36034  IntersectionExampleScenario.node[84].veinsmobility  co2emission  ETV
vector 36037  IntersectionExampleScenario.node[85].veinsmobility  posx  ETV
vector 36038  IntersectionExampleScenario.node[85].veinsmobility  posy  ETV
vector 36039  IntersectionExampleScenario.node[85].veinsmobility  speed  ETV
vector 36040  IntersectionExampleScenario.node[85].veinsmobility  acceleration  ETV
vector 36041  IntersectionExampleScenario.node[85].veinsmobility  co2emission  ETV
vector 36044  IntersectionExampleScenario.node[86].veinsmobility  posx  ETV
vector 36045  IntersectionExampleScenario.node[86].veinsmobility  posy  ETV
vector 36046  IntersectionExampleScenario.node[86].veinsmobility  speed  ETV
vector 36047  IntersectionExampleScenario.node[86].veinsmobility  acceleration  ETV
vector 36048  IntersectionExampleScenario.node[86].veinsmobility  co2emission  ETV
35873	2350989 8695 16860 24965 190.75 262.25 287 0.973 11.648172402475 698.62808551732 3499.484430377
35872	2359684 7768 16860 24965 190.75 262.25 287 -44.64429473877 4 38.511121749878 2373.330958007
35871	2367452 8077 16837 24965 190.5 262.25 288 0 15.64999961853 2247.4674577713 32405.057605068
35870	2375529 10116 16814 24965 190.25 262.25 289 483.14999389648 483.14999389648 139630.34823608 67462401.898028
35869	2385645 10086 16814 24965 190.25 262.25 289 176.21716308594 733.9766998291 132081.84645081 64740366.345836
35894	2395731 9094 17076 25132 192.75 263.75 285 0.973 11.648172402475 687.63957358839 3153.6896527196
35893	2404825 8885 17076 25132 192.75 263.75 285 -4.5 2.5 40.208654403687 455.85405636746
35892	2413710 9153 17047 25132 192.5 263.75 286 0 15.762755393982 2303.0492242938 33003.97642023
35891	2422863 10047 17018 25132 192.25 263.75 287 483.14999389648 483.14999389648 138664.04824829 66995534.064823
35890	2432910 9950 17018 25132 192.25 263.75 287 162.09765625 733.15126037598 128939.12522888 62530670.36212
vector 36051  IntersectionExampleScenario.node[87].veinsmobility  posx  ETV
vector 36052  IntersectionExampleScenario.node[87].veinsmobility  posy  ETV
vector 36053  IntersectionExampleScenario.node[87].veinsmobility  speed  ETV
vector 36054  IntersectionExampleScenario.node[87].veinsmobility  acceleration  ETV
vector 36055  IntersectionExampleScenario.node[87].veinsmobility  co2emission  ETV
35936	2443261 8560 18275 25581 201.75 268 266 0.973 10.916047529558 597.48543639969 2580.3519816534
35935	2451821 8889 18275 25581 201.75 268 266 -3.8421025276184 2.5 34.267293930054 322.6113705913
35934	2460710 8967 18240 25581 201.5 268 267 0 14.625 2179.3660678975 26974.506572576
35933	2469677 9366 18205 25581 201.25 268 268 238.23425292969 483.14999389648 120838.16177368 55614859.588865
35932	2479043 9336 18205 25581 201.25 268 268 184.17810058594 483.27911376953 111999.76223755 48812918.365732
vector 36058  IntersectionExampleScenario.node[88].veinsmobility  posx  ETV
vector 36059  IntersectionExampleScenario.node[88].veinsmobility  posy  ETV
vector 36060  IntersectionExampleScenario.node[88].veinsmobility  speed  ETV
vector 36061  IntersectionExampleScenario.node[88].veinsmobility  acceleration  ETV
vector 36062  IntersectionExampleScenario.node[88].veinsmobility  co2emission  ETV
vector 36065  IntersectionExampleScenario.node[89].veinsmobility  posx  ETV
vector 36066  IntersectionExampleScenario.node[89].veinsmobility  posy  ETV
vector 36067  IntersectionExampleScenario.node[89].veinsmobility  speed  ETV
vector 36068  IntersectionExampleScenario.node[89].veinsmobility  acceleration  ETV
vector 36069  IntersectionExampleScenario.node[89].veinsmobility  co2emission  ETV
vector 36072  IntersectionExampleScenario.node[90].veinsmobility  posx  ETV
vector 36073  IntersectionExampleScenario.node[90].veinsmobility  posy  ETV
35950	2489335 7935 19440 26359 210.75 275.75 261 0.96333723109819 12.099024792222 646.7077790223 3285.297072436
35949	2497270 7349 19440 26359 210.75 275.75 261 -6.7176246643066 4 40.208654403687 485.26706844698
35948	2504619 7540 19407 26359 210.5 275.75 262 0 16.27499961853 2208.9459319115 32116.439878733
35947	2512159 9207 19374 26359 210.25 275.75 263 486.85000610352 486.85000610352 128041.55160522 62337030.180507
35946	2521366 9189 19374 26359 210.25 275.75 263 237.77221679688 785.82187652588 134789.14434052 73144708.170636
vector 36074  IntersectionExampleScenario.node[90].veinsmobility  speed  ETV
vector 36075  IntersectionExampleScenario.node[90].veinsmobility  acceleration  ETV
vector 36076  IntersectionExampleScenario.node[90].veinsmobility  co2emission  ETV
35957	2530802 7061 20923 26668 224.5 279.25 220 0.973 11.200708441096 566.68195702544 2670.6177391893
35956	2537863 7341 20923 26668 224.5 279.25 220 -3.9810762405396 2.5 36.813589096069 318.39851916984
35955	2545204 7592 20900 26668 224.25 279.25 221 0 15.02499961853 2221.2845335901 29099.671967508
35954	2552796 7769 20877 26668 224 279.25 222 486.85000610352 486.85000610352 108080.70135498 52619090.114344
35953	2560565 7742 20877 26668 224 279.25 222 235.07952880859 785.82187652588 115141.12979889 63990029.715643
vector 36079  IntersectionExampleScenario.node[91].veinsmobility  posx  ETV
vector 36080  IntersectionExampleScenario.node[91].veinsmobility  posy  ETV
vector 36081  IntersectionExampleScenario.node[91].veinsmobility  speed  ETV
vector 36082  IntersectionExampleScenario.node[91].veinsmobility  acceleration  ETV
vector 36083  IntersectionExampleScenario.node[91].veinsmobility  co2emission  ETV
36013	2568708 5531 22351 26748 238 280.25 170 0.973 12.099024792222 549.45012204059 3132.6688514491
36012	2574239 5494 22351 26748 238 280.25 170 -2.5022735595703 2.5000038146973 42.439748764038 279.0853728089
36011	2579733 5821 22324 26748 237.75 280.25 171 5.6118135452271 16.27499961853 2209.2889738083 30457.437019317
36010	2585554 6020 22297 26748 237.5 280.25 172 486.85000610352 486.85000610352 83738.201049805 40767943.692195
36009	2591574 5991 22297 26748 237.5 280.25 172 238.90826416016 785.82187652588 90209.378944397 51355919.798251
vector 36086  IntersectionExampleScenario.node[92].veinsmobility  posx  ETV
vector 36087  IntersectionExampleScenario.node[92].veinsmobility  posy  ETV
vector 36088  IntersectionExampleScenario.node[92].veinsmobility  speed  ETV
vector 36089  IntersectionExampleScenario.node[92].veinsmobility  acceleration  ETV
vector 36090  IntersectionExampleScenario.node[92].veinsmobility  co2emission  ETV
vector 36093  IntersectionExampleScenario.node[93].veinsmobility  posx  ETV
vector 36094  IntersectionExampleScenario.node[93].veinsmobility  posy  ETV
vector 36095  IntersectionExampleScenario.node[93].veinsmobility  speed  ETV
vector 36096  IntersectionExampleScenario.node[93].veinsmobility  acceleration  ETV
vector 36097  IntersectionExampleScenario.node[93].veinsmobility  co2emission  ETV
36020	2598367 5635 22788 27044 242 284 169 0.973 11.36141391502 507.43631590604 2721.6099901963
36019	2604002 5552 22788 27044 242 284 169 -4.4778709411621 2.5 37.15309715271 275.74365120862
36018	2609554 5642 22759 27044 241.75 284 170 5.6500000953674 15.25 2207.8247995377 29932.273356192
36017	2615196 5981 22730 27044 241.5 284 171 486.85000610352 732.99745178223 91575.080123901 49998797.548126
36016	2621177 5975 22730 27044 241.5 284 171 486.85000610352 792.02188110352 98175.276824951 58224854.264494
vector 36100  IntersectionExampleScenario.node[94].veinsmobility  posx  ETV
vector 36101  IntersectionExampleScenario.node[94].veinsmobility  posy  ETV
vector 36102  IntersectionExampleScenario.node[94].veinsmobility  speed  ETV
vector 36103  IntersectionExampleScenario.node[94].veinsmobility  acceleration  ETV
vector 36104  IntersectionExampleScenario.node[94].veinsmobility  co2emission  ETV
vector 36107  IntersectionExampleScenario.node[95].veinsmobility  posx  ETV
vector 36108  IntersectionExampleScenario.node[95].veinsmobility  posy  ETV
vector 36109  IntersectionExampleScenario.node[95].veinsmobility  speed  ETV
vector 36110  IntersectionExampleScenario.node[95].veinsmobility  acceleration  ETV
vector 36111  IntersectionExampleScenario.node[95].veinsmobility  co2emission  ETV
vector 36114  IntersectionExampleScenario.node[96].veinsmobility  posx  ETV
vector 36115  IntersectionExampleScenario.node[96].veinsmobility  posy  ETV
vector 36116  IntersectionExampleScenario.node[96].veinsmobility  speed  ETV
[...]
vector 39320  IntersectionExampleScenario.node[554].veinsmobility  posx  ETV
vector 39321  IntersectionExampleScenario.node[554].veinsmobility  posy  ETV
vector 39322  IntersectionExampleScenario.node[554].veinsmobility  speed  ETV
vector 39323  IntersectionExampleScenario.node[554].veinsmobility  acceleration  ETV
vector 39324  IntersectionExampleScenario.node[554].veinsmobility  co2emission  ETV
39198	19198206 6700 161146 166392 1717.75 1765.25 191 0.973 11.36141391502 564.58280140077 2879.873649958
39197	19204906 6474 161146 166392 1717.75 1765.25 191 -4.1328086853027 2.5 36.813589096069 371.2529048359
39196	19211380 6809 161123 166392 1717.5 1765.25 192 4.4690027236938 15.25 2255.6342906952 29156.38063799
39195	19218189 7134 161100 166392 1717.25 1765.25 193 486.85000610352 735.47636413574 102494.93069458 55465872.238714
39194	19225323 7130 161100 166392 1717.25 1765.25 193 486.65954589844 801.41563415527 112042.9090271 67344632.916118
39212	19232453 6252 161448 166392 1721.25 1765.25 177 0.973 12.44402232946 578.07938968555 3200.1317845528
39211	19238705 6007 161448 166392 1721.25 1765.25 177 -4.5 2.5000019073486 41.90619468689 397.11136680361
39210	19244712 6312 161425 166392 1721 1765.25 178 5.0419292449951 16.75 2309.1638598442 32618.713745793
39209	19251024 6623 161402 166392 1720.75 1765.25 179 486.85000610352 486.85000610352 87146.151092529 42427104.191296
39208	19257647 6607 161402 166392 1720.75 1765.25 179 236.03588867188 807.6272277832 95835.655151367 55847994.979372
vector 39327  IntersectionExampleScenario.node[555].veinsmobility  posx  ETV
vector 39328  IntersectionExampleScenario.node[555].veinsmobility  posy  ETV
vector 39329  IntersectionExampleScenario.node[555].veinsmobility  speed  ETV
vector 39330  IntersectionExampleScenario.node[555].veinsmobility  acceleration  ETV
vector 39331  IntersectionExampleScenario.node[555].veinsmobility  co2emission  ETV
39219	19264660 6580 161498 166603 1721.75 1767.75 185 0.973 11.54047740176 539.84968659845 2585.744626498
39218	19271240 6557 161498 166603 1721.75 1767.75 185 -4.5 2.5 40.829942703247 252.13830597994
39217	19277797 6664 161473 166603 1721.5 1767.75 186 5.0702948570251 15.516043663025 2357.3181257248 31915.307507413
39216	19284461 6921 161448 166603 1721.25 1767.75 187 486.85000610352 486.85000610352 91040.951141357 44323287.61884
39215	19291382 6897 161448 166603 1721.25 1767.75 187 236.560546875 820.46829986572 101523.3797226 60266013.018571
vector 39334  IntersectionExampleScenario.node[556].veinsmobility  posx  ETV
vector 39335  IntersectionExampleScenario.node[556].veinsmobility  posy  ETV
vector 39341  IntersectionExampleScenario.node[557].veinsmobility  posx  ETV
vector 39342  IntersectionExampleScenario.node[557].veinsmobility  posy  ETV
vector 39336  IntersectionExampleScenario.node[556].veinsmobility  speed  ETV
vector 39337  IntersectionExampleScenario.node[556].veinsmobility  acceleration  ETV
vector 39338  IntersectionExampleScenario.node[556].veinsmobility  co2emission  ETV
vector 39343  IntersectionExampleScenario.node[557].veinsmobility  speed  ETV
vector 39344  IntersectionExampleScenario.node[557].veinsmobility  acceleration  ETV
vector 39345  IntersectionExampleScenario.node[557].veinsmobility  co2emission  ETV
39247	19299091 5628 162342 166839 1729.5 1770.25 164 0.973 11.90022389248 510.03841511368 3011.501371833
39246	19304719 5702 162342 166839 1729.5 1770.25 164 -3.9113006591797 2.5 39.869146347046 263.84922521876
39245	19310421 5803 162311 166839 1729.25 1770.25 165 5.6500000953674 16 2214.1658573151 30843.618348344
39244	19316224 6133 162280 166839 1729 1770.25 166 235.68121337891 486.85000610352 72527.905151367 32660638.815568
39243	19322357 6136 162280 166839 1729 1770.25 166 483.14999389648 785.82187652588 94832.334068298 55945745.928646
39170	19328493 8294 160524 167261 1711 1774.5 255 0.973 12.099024792222 651.52516845409 3323.624592388
39169	19336787 7481 160524 167261 1711 1774.5 255 -8.3547468185425 4 41.566686630249 516.67183026902
39168	19344268 7848 160503 167261 1710.75 1774.5 256 0 16.27499961853 2209.2946081161 32697.131397185
39167	19352116 9496 160482 167261 1710.5 1774.5 257 237.50634765625 785.82187652588 131815.30345917 71623314.925797
39166	19361612 9509 160482 167261 1710.5 1774.5 257 483.14999389648 483.14999389648 124169.5484314 59992516.566758
39240	19371121 6833 161961 167353 1726.25 1775.5 198 0.973 11.36141391502 558.57076604097 2780.7102179632
39239	19377954 6254 161961 167353 1726.25 1775.5 198 -7.4570107460022 4 37.32285118103 467.27675203522
39238	19384208 6634 161932 167353 1726 1775.5 199 0 15.25 2179.3544102907 30207.236966131
39237	19390842 7372 161903 167353 1725.75 1775.5 200 184.17810058594 483.36395263672 82189.780944824 35695194.670607
39236	19398214 7336 161903 167353 1725.75 1775.5 200 486.85000610352 733.68673706055 105720.82551575 56906511.346746
vector 39348  IntersectionExampleScenario.node[558].veinsmobility  posx  ETV
vector 39349  IntersectionExampleScenario.node[558].veinsmobility  posy  ETV
vector 39350  IntersectionExampleScenario.node[558].veinsmobility  speed  ETV
39177	19405785 8900 160635 167440 1712.25 1776.5 258 0.973 11.810082123732 647.39530120823 3135.9231017705
39176	19414685 8501 160635 167440 1712.25 1776.5 258 -4.5 2.5 39.869146347046 456.90248973951
39175	19423186 8776 160610 167440 1712 1776.5 259 0 15.875 2274.9005328855 32238.899713315
39174	19431962 9599 160587 167440 1711.75 1776.5 260 486.85000610352 807.09531402588 143874.38922882 82010749.928468
39173	19441561 9614 160587 167440 1711.75 1776.5 260 235.62524414062 483.14999389648 117546.10708618 54219449.090842
vector 39355  IntersectionExampleScenario.node[559].veinsmobility  posx  ETV
vector 39356  IntersectionExampleScenario.node[559].veinsmobility  posy  ETV
vector 39351  IntersectionExampleScenario.node[558].veinsmobility  acceleration  ETV
vector 39352  IntersectionExampleScenario.node[558].veinsmobility  co2emission  ETV
vector 39357  IntersectionExampleScenario.node[559].veinsmobility  speed  ETV
vector 39358  IntersectionExampleScenario.node[559].veinsmobility  acceleration  ETV
vector 39359  IntersectionExampleScenario.node[559].veinsmobility  co2emission  ETV
39254	19451752 6055 162951 167537 1734.75 1777.5 172 0.973 11.200708441096 522.31843995692 2748.3445310733
39253	19457807 5762 162951 167537 1734.75 1777.5 172 -5.5913848876953 2.5000019073486 36.813589096069 289.06811946453
39252	19463569 6171 162922 167537 1734.5 1777.5 173 5.3539032936096 15.02499961853 2216.9043836594 29892.217669355
39251	19469740 6405 162893 167537 1734.25 1777.5 174 184.17810058594 732.95097351074 77890.984268188 39087516.420577
39250	19476145 6439 162893 167537 1734.25 1777.5 174 486.85000610352 486.85000610352 84711.901062012 41241989.549081
39226	19482584 7496 161772 167698 1724.5 1779.25 220 0.973 11.450879080643 569.93020771785 2776.4425848485
39225	19490080 7701 161772 167698 1724.5 1779.25 220 -3.9393286705017 2.5 37.32285118103 327.40865995958
39224	19497781 7893 161747 167698 1724.25 1779.25 221 0 15.375 2211.3039409705 28761.623483183
39223	19505674 8201 161722 167698 1724 1779.25 222 483.14999389648 785.82187652588 123902.39360809 71071306.668184
39222	19513875 8205 161722 167698 1724 1779.25 222 483.14999389648 733.55290222168 115829.39833069 61533771.483926
39268	19522080 5865 163588 167888 1740.75 1781.5 164 0.973 11.200708441096 514.24327633464 2887.7724321534
39267	19527945 5614 163588 167888 1740.75 1781.5 164 -3.4926795959473 2.5 36.134572982788 279.1814306067
39266	19533559 5827 163559 167888 1740.5 1781.5 165 5.6500000953674 15.02499961853 2198.6277246475 30093.682090163
39265	19539386 6118 163530 167888 1740.25 1781.5 166 184.17810058594 487.06268310547 65996.854370117 28044139.049174
39264	19545504 6132 163530 167888 1740.25 1781.5 166 238.55798339844 486.85000610352 72228.247711182 32404935.508284
39275	19551636 5797 163708 167986 1741.75 1782.75 165 0.973 11.943292366111 541.7858075724 2921.988137988
39274	19557433 5927 163708 167986 1741.75 1782.75 165 -4.5 2.5000038146973 41.196187973022 279.90752895599
39273	19563360 5895 163677 167986 1741.5 1782.75 166 5.6500000953674 16.059635162354 2288.9159917831 32549.908271753
39272	19569255 6158 163646 167986 1741.25 1782.75 167 162.00311279297 487.06243896484 65087.523864746 27485197.514957
39271	19575413 6172 163646 167986 1741.25 1782.75 167 238.59594726562 486.85000610352 72980.742858887 32861044.279543
vector 39362  IntersectionExampleScenario.node[560].veinsmobility  posx  ETV
vector 39363  IntersectionExampleScenario.node[560].veinsmobility  posy  ETV
vector 39364  IntersectionExampleScenario.node[560].veinsmobility  speed  ETV
vector 39365  IntersectionExampleScenario.node[560].veinsmobility  acceleration  ETV
vector 39366  IntersectionExampleScenario.node[560].veinsmobility  co2emission  ETV
vector 39369  IntersectionExampleScenario.node[561].veinsmobility  posx  ETV
vector 39370  IntersectionExampleScenario.node[561].veinsmobility  posy  ETV
vector 39371  IntersectionExampleScenario.node[561].veinsmobility  speed  ETV
vector 39372  IntersectionExampleScenario.node[561].veinsmobility  acceleration  ETV
vector 39373  IntersectionExampleScenario.node[561].veinsmobility  co2emission  ETV
39303	19582397 5650 164933 168656 1751.5 1790.25 156 0.97223939240464 11.648172402475 492.13690170311 2653.6292583532
39302	19588047 5383 164933 168656 1751.5 1790.25 156 -4.0837707519531 2.5 38.680875778198 244.56158219389
39301	19593430 5524 164902 168656 1751.25 1790.25 157 5.6500000953674 15.64999961853 2203.4998674393 31856.522909353
39300	19598954 5821 164871 168656 1751 1790.25 158 184.17810058594 487.0380859375 62845.446655273 26763681.342837
39299	19604775 5839 164871 168656 1751 1790.25 158 237.28643798828 486.85000610352 68588.622894287 30720685.623714
39233	19610614 8693 161876 168818 1725.5 1792.25 268 0.973 11.648172402475 635.42696353784 2979.4986540903
39232	19619307 7835 161876 168818 1725.5 1792.25 268 -7.0929417610168 4 38.341367721558 476.74127862336
39231	19627142 8220 161849 168818 1725.25 1792.25 269 0 15.64999961853 2177.7517205477 30631.668074955
39230	19635362 9924 161822 168818 1725 1792.25 270 236.95220947266 483.14999389648 122268.75067139 56459525.318652
39229	19645286 9963 161822 168818 1725 1792.25 270 184.17810058594 483.36395263672 115346.93490601 51373435.026688
39282	19655249 6826 163836 168875 1742.75 1793 202 0.973 12.099024792222 581.00363903797 3186.038056645
39281	19662075 6975 163836 168875 1742.75 1793 202 -3.8457033634186 2.5 41.227170944214 357.28756763306
39280	19669050 7262 163803 168875 1742.5 1793 203 0 16.27499961853 2204.5901974179 30265.23161312
39279	19676312 7543 163770 168875 1742.25 1793 204 483.14999389648 733.26307678223 106617.28048706 56744495.80923
39278	19683855 7511 163770 168875 1742.25 1793 204 184.17810058594 486.9772644043 83762.283660889 36249356.223636
39289	19691366 7053 164071 169031 1744.5 1795.25 204 0.973 11.648172402475 574.33784725563 2936.0650520519
39288	19698419 7137 164071 169031 1744.5 1795.25 204 -4.5 2.5 38.511121749878 355.4125594788
39287	19705556 7368 164036 169031 1744.25 1795.25 205 2.33580493927 15.64999961853 2300.7020714283 30546.385469289
39286	19712924 7621 164001 169031 1744 1795.25 206 483.14999389648 483.14999389648 99528.898742676 48087386.820047
39285	19720545 7580 164001 169031 1744 1795.25 206 164.94219970703 735.0611114502 90376.761947632 44275841.990326
vector 39376  IntersectionExampleScenario.node[562].veinsmobility  posx  ETV
vector 39377  IntersectionExampleScenario.node[562].veinsmobility  posy  ETV
vector 39378  IntersectionExampleScenario.node[562].veinsmobility  speed  ETV
vector 39379  IntersectionExampleScenario.node[562].veinsmobility  acceleration  ETV
vector 39380  IntersectionExampleScenario.node[562].veinsmobility  co2emission  ETV
vector 39383  IntersectionExampleScenario.node[563].veinsmobility  posx  ETV
vector 39384  IntersectionExampleScenario.node[563].veinsmobility  posy  ETV
vector 39385  IntersectionExampleScenario.node[563].veinsmobility  speed  ETV
39310	19728766 5702 165503 169164 1756.5 1797 163 0.973 12.099024792222 533.01533807217 3042.3435821283
39309	19734468 5384 165503 169164 1756.5 1797 163 -2.787410736084 2.5 41.566686630249 251.54761736963
39308	19739852 5820 165474 169164 1756.25 1797 164 5.6500000953674 16.27499961853 2214.47174263 31168.552261585
39307	19745672 6103 165445 169164 1756 1797 165 483.14999389648 483.14999389648 79719.74899292 38516596.239358
39306	19751775 6056 165445 169164 1756 1797 165 184.17810058594 732.66146850586 73140.943267822 36446095.87441
vector 39386  IntersectionExampleScenario.node[563].veinsmobility  acceleration  ETV
vector 39387  IntersectionExampleScenario.node[563].veinsmobility  co2emission  ETV
39261	19758002 7645 163588 169417 1740.75 1800 238 0.973 11.450879080643 569.15599716373 2745.6979970705
39260	19765647 6957 163588 169417 1740.75 1800 238 -7.3439340591431 4 37.323125839233 468.21975751928
39259	19772604 7225 163559 169417 1740.5 1800 239 0 15.375 1811.6628320217 24834.953632071
39258	19779829 8877 163530 169417 1740.25 1800 240 334.15582275391 486.85000610352 113587.61523438 54044200.27414
39257	19788706 8868 163530 169417 1740.25 1800 240 483.14999389648 785.82187652588 131888.82103729 74505953.924322
39296	19797574 6659 164813 169417 1750.5 1800 199 0.973 12.099024792222 540.4122901039 3063.2066836729
39295	19804233 7089 164813 169417 1750.5 1800 199 -3.9257957935333 2.5000001192093 40.03994178772 359.36605818543
39294	19811322 7244 164784 169417 1750.25 1800 200 0 16.27499961853 1783.4583420902 23485.872811558
39293	19818566 7435 164754 169417 1750 1800 201 486.85000610352 486.85000610352 97856.851226807 47641608.617041
39292	19826001 7406 164754 169417 1750 1800 201 344.93536376953 785.82187652588 110760.52390289 63415735.609453
39317	19833407 5235 165681 169417 1758 1800 169 0.973 11.648172402475 349.03027863597 1546.7442680497
39316	19838642 4804 165681 169417 1758 1800 169 -7.9228315353394 2.5 -22.60000038147 341.32355870527
39315	19843446 5096 165650 169417 1757.75 1800 170 0 15.72314453125 1146.5850534439 16481.936418459
39314	19848542 6300 165619 169417 1757.5 1800 171 184.17810058594 471.60000610352 68025.260803223 28715242.844976
39313	19854842 6326 165619 169417 1757.5 1800 171 486.85000610352 486.85000610352 83251.351043701 40530920.763752
39324	19861168 4775 166371 169417 1765 1800 141 0.973 11.648172402475 464.45203329684 2816.5333946644
39323	19865943 4776 166371 169417 1765 1800 141 -3.2198886871338 2.5 38.177034378052 337.5305082255
39322	19870719 4946 166349 169417 1764.75 1800 142 4.0497379302979 15.64999961853 1575.0102992058 19610.638949693
39321	19875665 5287 166326 169417 1764.5 1800 143 486.85000610352 580.55340576172 70920.324981689 35239377.714357
39320	19880952 5281 166326 169417 1764.5 1800 143 486.85000610352 785.82187652588 84582.805198669 51459105.986049
39331	19886233 4302 166540 169417 1767 1800 133 0.973 11.200708441096 283.31043806396 1301.2398424085
39330	19890535 4979 166540 169417 1767 1800 133 -3.877375125885 2.5 -22.248646855354 180.70703664288
39329	19895514 4929 166519 169417 1766.75 1800 134 0 15.02499961853 1119.4050155133 13644.63057197
39328	19900443 4964 166497 169417 1766.5 1800 135 184.17810058594 464.30752563477 49577.140838623 19442282.10258
39327	19905407 4994 166497 169417 1766.5 1800 135 486.85000610352 486.85000610352 65724.750823975 31998095.339804
39338	19910401 4057 166714 169417 1769 1800 125 0.97223939240464 11.648172402475 299.54065663041 1476.3937627652
39337	19914458 3928 166714 169417 1769 1800 125 -7.1630640029907 2.5 -22.60000038147 315.45572319872
39336	19918386 4114 166689 169417 1768.75 1800 126 0 15.64999961853 1147.0843374729 16135.147662775
39335	19922500 4689 166666 169417 1768.5 1800 127 498.39999389648 785.82187652588 76092.442207336 46914452.353076
39334	19927189 4698 166666 169417 1768.5 1800 127 483.14999389648 483.14999389648 61360.049224854 29646107.408476
39345	19931887 4071 166739 169417 1769.25 1800 124 0.973 10.756497587458 274.89569596763 1198.2779496216
39344	19935958 4568 166739 169417 1769.25 1800 124 -4.5 2.5 -16.323066711426 201.60381079731
39343	19940526 4606 166714 169417 1769 1800 125 1.569233417511 14.39999961853 1142.6703828573 13502.091763824
39342	19945132 4634 166689 169417 1768.75 1800 126 167.29217529297 453.03225708008 43096.794555664 15883077.591146
39341	19949766 4661 166689 169417 1768.75 1800 126 486.85000610352 486.85000610352 61343.100769043 29864888.983817
39352	19954427 3043 167463 169417 1776.75 1800 94 0.9385927076613 12.099024792222 261.11701748886 1536.2439219453
39351	19957470 3459 167463 169417 1776.75 1800 94 -2.560718536377 2.5 -12.572840690613 188.94366858923
39350	19960929 3495 167440 169417 1776.5 1800 95 2.5067899227142 16.27499961853 1092.6364011765 14833.910720204
39349	19964424 3528 167417 169417 1776.25 1800 96 513.23986816406 785.82187652588 60803.488197327 39332427.228079
39348	19967952 3552 167417 169417 1776.25 1800 96 483.14999389648 483.14999389648 46382.399414062 22409655.993809
39359	19971504 3115 167513 169417 1777.25 1800 92 0.973 12.099024792222 280.46549282823 1603.4247893606
39358	19974619 3099 167513 169417 1777.25 1800 92 -8.1579999923706 2.5 -22.60000038147 342.46166483661
39357	19977718 3312 167488 169417 1777 1800 93 0 16.27499961853 1146.7600946426 16801.390396779
39356	19981030 3477 167463 169417 1776.75 1800 94 483.14999389648 483.14999389648 45416.09942627 21942788.160604
39355	19984507 3450 167463 169417 1776.75 1800 94 184.17810058594 471.60000610352 31916.875671387 11747084.742965
39366	19987957 2242 168047 169417 1783.5 1800 67 0.973 11.648172402475 217.14873751742 1341.6129730776
39365	19990199 2415 168047 169417 1783.5 1800 67 -2.1303215026855 2.5 12.098211288452 135.54731640828
39364	19992614 2501 168026 169417 1783.25 1800 68 5.6500000953674 15.64999961853 896.34251403809 12348.915508467
39363	19995115 2527 168005 169417 1783 1800 69 184.17810058594 405.44427490234 20063.788665771 6184205.3390403
39362	19997642 2551 168005 169417 1783 1800 69 486.85000610352 486.85000610352 33592.650421143 16354582.062567
39373	20000193 2076 168219 169417 1785.5 1800 59 0.973 11.648172402475 210.6592255756 1335.2916535241
39372	20002269 2085 168219 169417 1785.5 1800 59 -2.0692291259766 2.5 23.790868759155 126.5185683842
39371	20004354 2207 168196 169417 1785.25 1800 60 5.6500000953674 15.64999961853 813.6086025238 11437.905609629
39370	20006561 2252 168173 169417 1785 1800 61 586.31011962891 785.82187652588 42327.364463806 29614055.340964
39369	20008813 2255 168173 169417 1785 1800 61 483.14999389648 483.14999389648 29472.149627686 14239468.912733
39380	20011068 624 169086 169417 1796 1800 17 5.2162187258585 12.099024792222 146.34956186807 1335.2400062987
39379	20011692 435 169086 169417 1796 1800 17 2.4999980926514 2.5 42.499998092651 106.24999046326
39378	20012127 654 169067 169417 1795.75 1800 18 5.6500000953674 16.27499961853 197.32499504089 2352.4329995823
39377	20012781 702 169048 169417 1795.5 1800 19 741.88751220703 785.82187652588 14598.956413269 11220964.28663
39376	20013483 702 169048 169417 1795.5 1800 19 483.14999389648 483.14999389648 9179.8498840332 4435244.4154413
39387	20014185 441 169185 169417 1797.25 1800 12 5.2162187258585 9.8772939209111 90.329754123875 705.60800469607
39386	20014626 312 169185 169417 1797.25 1800 12 2.4999980926514 2.5 29.999998092651 74.99999046326
39385	20014938 473 169164 169417 1797 1800 13 5.6500000953674 13.14999961853 122.19999694824 1219.7736818981
39384	20015411 517 169143 169417 1796.75 1800 14 780.77033233643 807.09531402588 11150.565765381 8882089.4828251
39383	20015928 517 169143 169417 1796.75 1800 14 483.14999389648 483.14999389648 6764.0999145508 3268074.8324304
35438	20016445 637 0 169416 0 1800 31 0 25 491 8525
35439	20017082 651 0 169416 0 1800 31 0 173 2781 334025
