file 19809269 1591407637                                        
version 2
run nodebug-23-20200605-21:37:33-20324
attr configname nodebug
attr datetime 20200605-21:37:33
attr experiment nodebug
attr inifile omnetpp.ini
attr iterationvars ""
attr iterationvars2 $repetition=23
attr measurement ""
attr network "\"org.car2x.veins.modules.application.ExtTraCIScenarioManagerLaunchd.IntersectionExampleScenario\""
attr processid 20324
attr repetition 23
attr replication #23
attr resultdir results
attr runnumber 23
attr seedset 23
param **.coreDebug false
param **.debug false
param *.**.nic.mac1609_4.bitrate 18Mbps
param *.**.nic.mac1609_4.txPower 20mW
param *.**.nic.mac1609_4.useServiceChannel false
param *.**.nic.phy80211p.analogueModels "xmldoc(\"config.xml\")"
param *.**.nic.phy80211p.decider "xmldoc(\"config.xml\")"
param *.**.nic.phy80211p.sensitivity -89dBm
param *.**.nic.phy80211p.thermalNoise -110dBm
param *.**.nic.phy80211p.usePropagationDelay true
param *.**.nic.phy80211p.useThermalNoise true
param *.annotations.draw false
param *.connectionManager.alpha 2.0
param *.connectionManager.carrierFrequency "5.890e9 Hz"
param *.connectionManager.pMax 20mW
param *.connectionManager.sat -89dBm
param *.connectionManager.sendDirect true
param *.manager.autoShutdown true
param *.manager.host "\"localhost\""
param *.manager.launchConfig "xmldoc(\"paramics.launchd.xml\")"
param *.manager.margin 25
param *.manager.moduleDisplayString "\"\""
param *.manager.moduleName "\"node\""
param *.manager.moduleType "\"org.car2x.veins.nodes.Car\""
param *.manager.port 9999
param *.manager.updateInterval 250ms
param *.node[*0].veinsmobility.accidentCount 0
param *.node[*0].veinsmobility.accidentDuration 30s
param *.node[*0].veinsmobility.accidentStart 75s
param *.node[*].appl.LiderSelectZoneRadio 55.0
param *.node[*].appl.ShareDataZoneRadio 110.0
param *.node[*].appl.TiempoSemaforo 30.0
param *.node[*].appl.beaconInterval 1s
param *.node[*].appl.beaconPriority 3
param *.node[*].appl.dataOnSch false
param *.node[*].appl.dataPriority 2
param *.node[*].appl.debug false
param *.node[*].appl.headerLength "256 bit"
param *.node[*].appl.maxOffset 0.005s
param *.node[*].appl.sendBeacons false
param *.node[*].appl.sendData true
param *.node[*].applType "\"Dummy\""
param *.node[*].mobilityType "\"TraCIMobility\""
param *.node[*].mobilityType.debug true
param *.node[*].veinsmobility.x 0
param *.node[*].veinsmobility.y 0
param *.node[*].veinsmobility.z 1.895
param *.node[*].veinsmobilityType "\"org.car2x.veins.modules.mobility.traci.TraCIMobility\""
param *.node[*].veinsmobilityType.debug true
param *.playgroundSizeX 8500m
param *.playgroundSizeY 8500m
param *.playgroundSizeZ 50m
param *.world.use2D false
param *.world.useTorus false

vector 19716  IntersectionExampleScenario.manager  vehiclesinsim  ETV
attr type  int
vector 19717  IntersectionExampleScenario.manager  realtime  ETV
attr type  int
attr unit  s
vector 19720  IntersectionExampleScenario.node[0].veinsmobility  posx  ETV
vector 19721  IntersectionExampleScenario.node[0].veinsmobility  posy  ETV
vector 19722  IntersectionExampleScenario.node[0].veinsmobility  speed  ETV
vector 19723  IntersectionExampleScenario.node[0].veinsmobility  acceleration  ETV
vector 19724  IntersectionExampleScenario.node[0].veinsmobility  co2emission  ETV
vector 19727  IntersectionExampleScenario.node[1].veinsmobility  posx  ETV
vector 19728  IntersectionExampleScenario.node[1].veinsmobility  posy  ETV
vector 19734  IntersectionExampleScenario.node[2].veinsmobility  posx  ETV
vector 19735  IntersectionExampleScenario.node[2].veinsmobility  posy  ETV
vector 19729  IntersectionExampleScenario.node[1].veinsmobility  speed  ETV
vector 19730  IntersectionExampleScenario.node[1].veinsmobility  acceleration  ETV
vector 19731  IntersectionExampleScenario.node[1].veinsmobility  co2emission  ETV
vector 19736  IntersectionExampleScenario.node[2].veinsmobility  speed  ETV
vector 19741  IntersectionExampleScenario.node[3].veinsmobility  posx  ETV
vector 19742  IntersectionExampleScenario.node[3].veinsmobility  posy  ETV
vector 19737  IntersectionExampleScenario.node[2].veinsmobility  acceleration  ETV
vector 19738  IntersectionExampleScenario.node[2].veinsmobility  co2emission  ETV
vector 19748  IntersectionExampleScenario.node[4].veinsmobility  posx  ETV
vector 19749  IntersectionExampleScenario.node[4].veinsmobility  posy  ETV
vector 19743  IntersectionExampleScenario.node[3].veinsmobility  speed  ETV
vector 19744  IntersectionExampleScenario.node[3].veinsmobility  acceleration  ETV
vector 19745  IntersectionExampleScenario.node[3].veinsmobility  co2emission  ETV
vector 19750  IntersectionExampleScenario.node[4].veinsmobility  speed  ETV
vector 19751  IntersectionExampleScenario.node[4].veinsmobility  acceleration  ETV
vector 19752  IntersectionExampleScenario.node[4].veinsmobility  co2emission  ETV
vector 19755  IntersectionExampleScenario.node[5].veinsmobility  posx  ETV
vector 19756  IntersectionExampleScenario.node[5].veinsmobility  posy  ETV
vector 19757  IntersectionExampleScenario.node[5].veinsmobility  speed  ETV
vector 19758  IntersectionExampleScenario.node[5].veinsmobility  acceleration  ETV
vector 19759  IntersectionExampleScenario.node[5].veinsmobility  co2emission  ETV
vector 19762  IntersectionExampleScenario.node[6].veinsmobility  posx  ETV
vector 19763  IntersectionExampleScenario.node[6].veinsmobility  posy  ETV
vector 19764  IntersectionExampleScenario.node[6].veinsmobility  speed  ETV
vector 19765  IntersectionExampleScenario.node[6].veinsmobility  acceleration  ETV
vector 19766  IntersectionExampleScenario.node[6].veinsmobility  co2emission  ETV
vector 19769  IntersectionExampleScenario.node[7].veinsmobility  posx  ETV
vector 19770  IntersectionExampleScenario.node[7].veinsmobility  posy  ETV
vector 19771  IntersectionExampleScenario.node[7].veinsmobility  speed  ETV
vector 19772  IntersectionExampleScenario.node[7].veinsmobility  acceleration  ETV
vector 19773  IntersectionExampleScenario.node[7].veinsmobility  co2emission  ETV
vector 19776  IntersectionExampleScenario.node[8].veinsmobility  posx  ETV
vector 19777  IntersectionExampleScenario.node[8].veinsmobility  posy  ETV
vector 19783  IntersectionExampleScenario.node[9].veinsmobility  posx  ETV
vector 19784  IntersectionExampleScenario.node[9].veinsmobility  posy  ETV
vector 19778  IntersectionExampleScenario.node[8].veinsmobility  speed  ETV
vector 19785  IntersectionExampleScenario.node[9].veinsmobility  speed  ETV
vector 19779  IntersectionExampleScenario.node[8].veinsmobility  acceleration  ETV
vector 19780  IntersectionExampleScenario.node[8].veinsmobility  co2emission  ETV
vector 19786  IntersectionExampleScenario.node[9].veinsmobility  acceleration  ETV
vector 19787  IntersectionExampleScenario.node[9].veinsmobility  co2emission  ETV
vector 19790  IntersectionExampleScenario.node[10].veinsmobility  posx  ETV
vector 19791  IntersectionExampleScenario.node[10].veinsmobility  posy  ETV
vector 19792  IntersectionExampleScenario.node[10].veinsmobility  speed  ETV
vector 19793  IntersectionExampleScenario.node[10].veinsmobility  acceleration  ETV
vector 19794  IntersectionExampleScenario.node[10].veinsmobility  co2emission  ETV
vector 19797  IntersectionExampleScenario.node[11].veinsmobility  posx  ETV
vector 19798  IntersectionExampleScenario.node[11].veinsmobility  posy  ETV
vector 19799  IntersectionExampleScenario.node[11].veinsmobility  speed  ETV
vector 19800  IntersectionExampleScenario.node[11].veinsmobility  acceleration  ETV
vector 19801  IntersectionExampleScenario.node[11].veinsmobility  co2emission  ETV
vector 19804  IntersectionExampleScenario.node[12].veinsmobility  posx  ETV
vector 19805  IntersectionExampleScenario.node[12].veinsmobility  posy  ETV
vector 19806  IntersectionExampleScenario.node[12].veinsmobility  speed  ETV
vector 19807  IntersectionExampleScenario.node[12].veinsmobility  acceleration  ETV
vector 19808  IntersectionExampleScenario.node[12].veinsmobility  co2emission  ETV
vector 19811  IntersectionExampleScenario.node[13].veinsmobility  posx  ETV
vector 19812  IntersectionExampleScenario.node[13].veinsmobility  posy  ETV
vector 19813  IntersectionExampleScenario.node[13].veinsmobility  speed  ETV
vector 19814  IntersectionExampleScenario.node[13].veinsmobility  acceleration  ETV
vector 19815  IntersectionExampleScenario.node[13].veinsmobility  co2emission  ETV
vector 19818  IntersectionExampleScenario.node[14].veinsmobility  posx  ETV
vector 19819  IntersectionExampleScenario.node[14].veinsmobility  posy  ETV
vector 19820  IntersectionExampleScenario.node[14].veinsmobility  speed  ETV
vector 19821  IntersectionExampleScenario.node[14].veinsmobility  acceleration  ETV
vector 19822  IntersectionExampleScenario.node[14].veinsmobility  co2emission  ETV
19752	8901 5094 97 2963 7.5 47.75 162 0.973 11.36141391502 494.00056754103 2590.876658269
19751	13995 4769 97 2963 7.5 47.75 162 -3.4297657012939 2.5 36.643835067749 265.74411130721
19750	18764 4997 86 2963 7.25 47.75 163 5.6500000953674 15.25 2176.3148064613 30247.08857165
19749	23761 5314 75 2963 7 47.75 164 238.59350585938 483.14999389648 70953.77041626 31627514.529497
19748	29075 5310 75 2963 7 47.75 164 184.17810058594 483.14999389648 65160.568939209 27652644.715976
19759	34385 5028 178 3047 9.25 48.75 159 0.973 11.990504229548 521.55552342242 2897.9623210971
19758	39413 4598 178 3047 9.25 48.75 159 -4.5 2.5 39.699392318726 261.50248496322
19757	44011 4964 165 3047 9 48.75 160 5.6500000953674 16.125 2303.2081575394 33902.898841607
19756	48975 5248 152 3047 8.75 48.75 161 483.14999389648 483.14999389648 77787.149017334 37582860.57295
19755	54223 5203 152 3047 8.75 48.75 161 164.94219970703 734.99771118164 70721.874389648 35618722.057618
19724	59426 5773 20 3258 3.75 51.5 192 0.973 11.450879080643 554.82345311784 2796.9605685374
19723	65199 5231 20 3258 3.75 51.5 192 -7.3439340591431 4 37.32285118103 468.21975753043
19722	70430 5633 17 3258 3.5 51.5 193 0 15.375 2201.1615531445 30669.924930393
19721	76063 6269 14 3258 3.25 51.5 194 236.78112792969 486.85000610352 85907.907287598 39090154.980033
19720	82332 6263 14 3258 3.25 51.5 194 483.14999389648 785.82187652588 108565.92131805 62690251.874025
vector 19825  IntersectionExampleScenario.node[15].veinsmobility  posx  ETV
vector 19826  IntersectionExampleScenario.node[15].veinsmobility  posy  ETV
vector 19827  IntersectionExampleScenario.node[15].veinsmobility  speed  ETV
vector 19832  IntersectionExampleScenario.node[16].veinsmobility  posx  ETV
vector 19833  IntersectionExampleScenario.node[16].veinsmobility  posy  ETV
vector 19828  IntersectionExampleScenario.node[15].veinsmobility  acceleration  ETV
vector 19829  IntersectionExampleScenario.node[15].veinsmobility  co2emission  ETV
vector 19834  IntersectionExampleScenario.node[16].veinsmobility  speed  ETV
vector 19835  IntersectionExampleScenario.node[16].veinsmobility  acceleration  ETV
vector 19836  IntersectionExampleScenario.node[16].veinsmobility  co2emission  ETV
19745	89397 5675 86 3372 7.25 53 184 0.973 11.200708441096 528.18957728214 2629.7327555832
19744	95072 5472 86 3372 7.25 53 184 -4.5 2.5000004768372 35.455564498901 415.48970772405
19743	100544 5891 75 3372 7 53 185 0 15.02499961853 2171.9105157051 29225.603212807
19742	106435 6051 66 3372 6.75 53 186 486.85000610352 486.85000610352 90554.101135254 44086264.690397
19741	112486 6038 66 3372 6.75 53 186 236.86145019531 775.57579040527 95641.903427124 53234538.580645
19731	118524 6026 59 3508 6.5 54.75 194 0.973 10.507675435496 574.66403213042 2631.2844603476
19730	124550 5713 59 3508 6.5 54.75 194 -4.5 2.5 37.15309715271 413.56036381158
19729	130263 6227 52 3508 6.25 54.75 195 2.6042792797089 15.002069473267 2272.4791898727 29934.865076715
19728	136490 6373 47 3508 6 54.75 196 486.85000610352 486.85000610352 95422.601196289 46456493.974827
19727	142863 6350 47 3508 6 54.75 196 236.26501464844 800.04531860352 104519.25544739 60573824.126454
vector 19839  IntersectionExampleScenario.node[17].veinsmobility  posx  ETV
vector 19840  IntersectionExampleScenario.node[17].veinsmobility  posy  ETV
vector 19841  IntersectionExampleScenario.node[17].veinsmobility  speed  ETV
vector 19842  IntersectionExampleScenario.node[17].veinsmobility  acceleration  ETV
vector 19843  IntersectionExampleScenario.node[17].veinsmobility  co2emission  ETV
19738	149614 6679 66 4270 6.75 64.75 233 0.973 12.099024792222 626.39908576922 3266.670701854
19737	156293 6063 66 4270 6.75 64.75 233 -6.9978852272034 4 41.227170944214 489.15880119239
19736	162356 6343 59 4270 6.5 64.75 234 0 16.27499961853 2207.818998456 32375.34235052
19735	168699 7658 52 4270 6.25 64.75 235 483.14999389648 785.82187652588 128556.04419708 72347727.174431
19734	176357 7659 52 4270 6.25 64.75 235 483.14999389648 734.31971740723 121661.02580261 64061380.99755
vector 19846  IntersectionExampleScenario.node[18].veinsmobility  posx  ETV
vector 19847  IntersectionExampleScenario.node[18].veinsmobility  posy  ETV
vector 19848  IntersectionExampleScenario.node[18].veinsmobility  speed  ETV
vector 19849  IntersectionExampleScenario.node[18].veinsmobility  acceleration  ETV
vector 19850  IntersectionExampleScenario.node[18].veinsmobility  co2emission  ETV
19773	184417 5216 1007 4419 24 66.75 172 0.973 12.717865293408 583.7697661182 3688.4686430472
19772	189633 5181 1007 4419 24 66.75 172 -2.9081058502197 2.5 43.773473739624 367.21784126859
19771	194814 5355 990 4419 23.75 66.75 173 3.9643862247467 17.125 2191.3266022205 31123.835228994
19770	200169 5719 973 4419 23.5 66.75 174 486.85000610352 785.82187652588 98915.049079895 57941913.159818
19769	205888 5739 973 4419 23.5 66.75 174 235.59020996094 483.14999389648 76441.218444824 34499668.949896
19780	211627 5466 1185 4632 26.5 69.75 174 0.973 11.200708441096 538.9144963095 2957.2549943708
19779	217093 5301 1185 4632 26.5 69.75 174 -4.1233596801758 2.5000019073486 35.964826583862 326.6505732862
19778	222394 5555 1164 4632 26.25 69.75 175 5.6500000953674 15.02499961853 2273.0773792267 30671.380452291
19777	227949 5793 1143 4632 26 69.75 176 237.83746337891 801.41563415527 93344.121803284 54111576.679531
19776	233742 5808 1143 4632 26 69.75 176 483.14999389648 483.14999389648 85034.398925781 41084369.321982
19808	239550 4802 1902 4842 34.75 73.25 155 0.973 12.26218747632 534.64549197507 3267.9768113316
19807	244352 4775 1902 4842 34.75 73.25 155 -4.2615737915039 2.5 41.227170944214 318.23305609011
19806	249127 4800 1879 4842 34.5 73.25 156 5.6500000953674 16.5 2176.1799640656 31912.099745026
19805	253927 5171 1856 4842 34.25 73.25 157 486.80444335938 785.82187652588 90068.447502136 53383649.519309
19804	259098 5178 1856 4842 34.25 73.25 157 238.73358154297 483.14999389648 68137.378143311 30443879.334703
vector 19853  IntersectionExampleScenario.node[19].veinsmobility  posx  ETV
vector 19854  IntersectionExampleScenario.node[19].veinsmobility  posy  ETV
vector 19855  IntersectionExampleScenario.node[19].veinsmobility  speed  ETV
vector 19856  IntersectionExampleScenario.node[19].veinsmobility  acceleration  ETV
vector 19857  IntersectionExampleScenario.node[19].veinsmobility  co2emission  ETV
vector 19860  IntersectionExampleScenario.node[20].veinsmobility  posx  ETV
vector 19861  IntersectionExampleScenario.node[20].veinsmobility  posy  ETV
vector 19862  IntersectionExampleScenario.node[20].veinsmobility  speed  ETV
vector 19863  IntersectionExampleScenario.node[20].veinsmobility  acceleration  ETV
vector 19864  IntersectionExampleScenario.node[20].veinsmobility  co2emission  ETV
19766	265078 7483 598 5250 17.25 82.5 262 0.973 11.36141391502 620.95172979017 2853.5814214014
19765	272561 7019 598 5250 17.25 82.5 262 -7.0853018760681 4 37.32285118103 465.90369902253
19764	279580 7025 583 5250 17 82.5 263 0 15.25 2179.8008264303 30239.400125898
19763	286605 8618 568 5250 16.75 82.5 264 236.31317138672 483.14999389648 119200.77093506 54927878.625484
19762	295223 8657 568 5250 16.75 82.5 264 184.17810058594 483.36395263672 112380.95422363 49936816.572488
vector 19867  IntersectionExampleScenario.node[21].veinsmobility  posx  ETV
vector 19868  IntersectionExampleScenario.node[21].veinsmobility  posy  ETV
vector 19869  IntersectionExampleScenario.node[21].veinsmobility  speed  ETV
vector 19874  IntersectionExampleScenario.node[22].veinsmobility  posx  ETV
vector 19875  IntersectionExampleScenario.node[22].veinsmobility  posy  ETV
vector 19870  IntersectionExampleScenario.node[21].veinsmobility  acceleration  ETV
vector 19871  IntersectionExampleScenario.node[21].veinsmobility  co2emission  ETV
19787	304435 6916 1185 5320 26.5 84 231 0.973 12.099024792222 609.7846731165 3104.9318062468
19786	311351 7464 1185 5320 26.5 84 231 -3.7868511676788 2.5 41.396924972534 338.28928098452
19785	318815 7376 1164 5320 26.25 84 232 0 16.27499961853 2187.8566680085 29794.7963932
19784	326191 7676 1143 5320 26 84 233 236.35961914062 483.14999389648 104709.37106323 48077113.71601
19783	333867 7642 1143 5320 26 84 233 184.17810058594 483.33804321289 97032.654541016 42308666.986863
vector 19881  IntersectionExampleScenario.node[23].veinsmobility  posx  ETV
vector 19882  IntersectionExampleScenario.node[23].veinsmobility  posy  ETV
vector 19876  IntersectionExampleScenario.node[22].veinsmobility  speed  ETV
vector 19877  IntersectionExampleScenario.node[22].veinsmobility  acceleration  ETV
vector 19878  IntersectionExampleScenario.node[22].veinsmobility  co2emission  ETV
vector 19883  IntersectionExampleScenario.node[23].veinsmobility  speed  ETV
vector 19884  IntersectionExampleScenario.node[23].veinsmobility  acceleration  ETV
vector 19885  IntersectionExampleScenario.node[23].veinsmobility  co2emission  ETV
19801	342157 6376 1727 5471 32.75 86.25 215 0.973 11.90022389248 579.75649159146 3041.6914899528
19800	348533 6633 1727 5471 32.75 86.25 215 -3.9567828178406 2.5 39.869146347046 366.70692395142
19799	355166 6817 1704 5471 32.5 86.25 216 0 16 2208.0508645475 28885.653161432
19798	361983 7153 1681 5471 32.25 86.25 217 483.14999389648 733.28128051758 113062.85606384 59966452.00899
19797	369136 7138 1681 5471 32.25 86.25 217 184.17810058594 486.86657714844 88879.530151367 38273318.53716
vector 19888  IntersectionExampleScenario.node[24].veinsmobility  posx  ETV
vector 19889  IntersectionExampleScenario.node[24].veinsmobility  posy  ETV
vector 19890  IntersectionExampleScenario.node[24].veinsmobility  speed  ETV
vector 19891  IntersectionExampleScenario.node[24].veinsmobility  acceleration  ETV
vector 19892  IntersectionExampleScenario.node[24].veinsmobility  co2emission  ETV
vector 19895  IntersectionExampleScenario.node[25].veinsmobility  posx  ETV
vector 19896  IntersectionExampleScenario.node[25].veinsmobility  posy  ETV
vector 19897  IntersectionExampleScenario.node[25].veinsmobility  speed  ETV
19815	376907 6553 2016 5712 36 89.5 215 0.973 11.200708441096 560.7411783707 2637.8991681996
19814	383460 6604 2016 5712 36 89.5 215 -4.5 2.5 35.964826583862 361.99550158633
19813	390064 6864 1993 5712 35.75 89.5 216 2.4306075572968 15.02499961853 2261.912951231 28492.484083832
19812	396928 7150 1970 5712 35.5 89.5 217 483.14999389648 735.54919433594 113742.50827026 60751785.943485
19811	404078 7126 1970 5712 35.5 89.5 217 172.9296875 486.85000610352 87437.949035645 37298253.412602
vector 19898  IntersectionExampleScenario.node[25].veinsmobility  acceleration  ETV
vector 19899  IntersectionExampleScenario.node[25].veinsmobility  co2emission  ETV
19822	411373 5518 2690 5817 44.5 90.75 186 0.973 11.648172402475 541.20603417028 2840.2661039529
19821	416891 5773 2690 5817 44.5 90.75 186 -4.5 2.5 39.699392318726 329.3367008412
19820	422664 5899 2669 5817 44.25 90.75 187 2.5016062259674 15.64999961853 2206.0207104683 28810.618768184
19819	428563 6197 2648 5817 44 90.75 188 483.14999389648 732.37088012695 99039.778594971 53175887.4628
19818	434760 6179 2648 5817 44 90.75 188 184.17810058594 486.85000610352 75534.573120117 32158347.051344
19794	440939 7650 1462 6259 29.75 96.5 268 0.973 11.36141391502 624.97198256408 2840.5791807943
19793	448589 6828 1462 6259 29.75 96.5 268 -8.4870567321777 4 37.15309715271 476.36065124764
19792	455417 7172 1439 6259 29.5 96.5 269 0 15.25 2176.7448656559 30094.704683899
19791	462589 8849 1416 6259 29.25 96.5 270 486.85000610352 733.15849304199 139786.84008789 73479991.772541
19790	471438 8900 1416 6259 29.25 96.5 270 486.63604736328 785.82187652588 146720.80962372 81841066.864755
19836	480338 5531 3372 6349 53 98 181 0.973 11.648172402475 536.46402990628 2872.1276651288
19835	485869 5468 3372 6349 53 98 181 -2.0975685119629 2.5000019073486 38.511121749878 291.53720352691
19834	491337 5706 3351 6349 52.75 98 182 3.1330020427704 15.64999961853 2205.0794866085 29617.584740557
19833	497043 6032 3330 6349 52.5 98 183 237.73168945312 486.85000610352 80765.628601074 36648243.110092
19832	503075 6027 3330 6349 52.5 98 183 483.12036132812 785.82187652588 103662.40329742 60536512.522055
vector 19902  IntersectionExampleScenario.node[26].veinsmobility  posx  ETV
vector 19903  IntersectionExampleScenario.node[26].veinsmobility  posy  ETV
vector 19904  IntersectionExampleScenario.node[26].veinsmobility  speed  ETV
vector 19905  IntersectionExampleScenario.node[26].veinsmobility  acceleration  ETV
vector 19906  IntersectionExampleScenario.node[26].veinsmobility  co2emission  ETV
vector 19909  IntersectionExampleScenario.node[27].veinsmobility  posx  ETV
vector 19910  IntersectionExampleScenario.node[27].veinsmobility  posy  ETV
vector 19911  IntersectionExampleScenario.node[27].veinsmobility  speed  ETV
vector 19912  IntersectionExampleScenario.node[27].veinsmobility  acceleration  ETV
vector 19913  IntersectionExampleScenario.node[27].veinsmobility  co2emission  ETV
vector 19916  IntersectionExampleScenario.node[28].veinsmobility  posx  ETV
vector 19917  IntersectionExampleScenario.node[28].veinsmobility  posy  ETV
vector 19918  IntersectionExampleScenario.node[28].veinsmobility  speed  ETV
vector 19919  IntersectionExampleScenario.node[28].veinsmobility  acceleration  ETV
vector 19920  IntersectionExampleScenario.node[28].veinsmobility  co2emission  ETV
vector 19923  IntersectionExampleScenario.node[29].veinsmobility  posx  ETV
vector 19924  IntersectionExampleScenario.node[29].veinsmobility  posy  ETV
vector 19925  IntersectionExampleScenario.node[29].veinsmobility  speed  ETV
vector 19926  IntersectionExampleScenario.node[29].veinsmobility  acceleration  ETV
vector 19927  IntersectionExampleScenario.node[29].veinsmobility  co2emission  ETV
vector 19930  IntersectionExampleScenario.node[30].veinsmobility  posx  ETV
vector 19931  IntersectionExampleScenario.node[30].veinsmobility  posy  ETV
vector 19937  IntersectionExampleScenario.node[31].veinsmobility  posx  ETV
vector 19938  IntersectionExampleScenario.node[31].veinsmobility  posy  ETV
vector 19932  IntersectionExampleScenario.node[30].veinsmobility  speed  ETV
vector 19933  IntersectionExampleScenario.node[30].veinsmobility  acceleration  ETV
vector 19934  IntersectionExampleScenario.node[30].veinsmobility  co2emission  ETV
vector 19939  IntersectionExampleScenario.node[31].veinsmobility  speed  ETV
vector 19940  IntersectionExampleScenario.node[31].veinsmobility  acceleration  ETV
vector 19941  IntersectionExampleScenario.node[31].veinsmobility  co2emission  ETV
19843	511508 6449 3737 7260 57.75 110.75 213 0.973 11.200708441096 564.050609676 2698.0339806314
19842	517957 5862 3737 7260 57.75 110.75 213 -8.6476802825928 4 35.795072555542 478.27576012592
19841	523819 6267 3718 7260 57.5 110.75 214 0 15.02499961853 2203.4841990471 30168.2151068
19840	530086 7131 3698 7260 57.25 110.75 215 238.29931640625 785.82187652588 110846.2914505 61403311.839572
19839	537217 7141 3698 7260 57.25 110.75 215 483.14999389648 483.14999389648 103877.24868774 50188292.069467
19829	544358 6960 3330 7283 52.5 111 235 0.973 11.200708441096 582.35022153575 2676.1732903284
19828	551318 6264 3330 7283 52.5 111 235 -6.8669729232788 4 35.625318527222 445.88497271223
19827	557582 6658 3311 7283 52.25 111 236 0 15.02499961853 2184.6978769302 29568.088135373
19826	564240 7845 3292 7283 52 111 237 184.17810058594 483.36395263672 99450.757049561 43780886.854182
19825	572085 7798 3292 7283 52 111 237 486.85000610352 735.00680541992 124057.76367188 66052900.47744
19850	579883 5511 4400 7375 66.5 112 183 0.973 12.099024792222 565.39101922675 3146.9477912817
19849	585394 6015 4400 7375 66.5 112 183 -2.309627532959 2.5000009536743 41.439504623413 302.4279037797
19848	591409 5982 4381 7375 66.25 112 184 2.6533794403076 16.27499961853 2208.4922859669 30022.964686091
19847	597391 6123 4362 7375 66 112 185 238.60552978516 785.82187652588 96512.528999329 54435923.596909
19846	603514 6152 4362 7375 66 112 185 483.14999389648 483.14999389648 89382.74887085 43185274.571402
vector 19944  IntersectionExampleScenario.node[32].veinsmobility  posx  ETV
vector 19945  IntersectionExampleScenario.node[32].veinsmobility  posy  ETV
vector 19946  IntersectionExampleScenario.node[32].veinsmobility  speed  ETV
vector 19947  IntersectionExampleScenario.node[32].veinsmobility  acceleration  ETV
vector 19948  IntersectionExampleScenario.node[32].veinsmobility  co2emission  ETV
vector 19951  IntersectionExampleScenario.node[33].veinsmobility  posx  ETV
vector 19952  IntersectionExampleScenario.node[33].veinsmobility  posy  ETV
vector 19953  IntersectionExampleScenario.node[33].veinsmobility  speed  ETV
19871	610299 4945 5320 8343 84 121.75 152 0.94600815583079 12.353032912318 513.60294116636 3058.5241778411
19870	615244 4539 5320 8343 84 121.75 152 -3.2212295532227 2.5 41.566686630249 260.62494539915
19869	619783 4796 5307 8343 83.75 121.75 153 5.6500000953674 16.625 2215.9255924225 33259.469858884
19868	624579 5166 5294 8343 83.5 121.75 154 483.13723754883 785.82187652588 88102.360588074 52137902.290957
19867	629745 5143 5294 8343 83.5 121.75 154 483.14999389648 735.07945251465 82529.38772583 45161584.538314
vector 19958  IntersectionExampleScenario.node[34].veinsmobility  posx  ETV
vector 19959  IntersectionExampleScenario.node[34].veinsmobility  posy  ETV
vector 19954  IntersectionExampleScenario.node[33].veinsmobility  acceleration  ETV
vector 19955  IntersectionExampleScenario.node[33].veinsmobility  co2emission  ETV
vector 19960  IntersectionExampleScenario.node[34].veinsmobility  speed  ETV
vector 19961  IntersectionExampleScenario.node[34].veinsmobility  acceleration  ETV
vector 19962  IntersectionExampleScenario.node[34].veinsmobility  co2emission  ETV
19878	635458 5181 5352 8631 84.5 124.25 160 0.973 12.553400930962 570.70614101113 3467.5517802087
19877	640639 4823 5352 8631 84.5 124.25 160 -30.569429397583 4 42.754949569702 1331.4074442748
19876	645462 5144 5335 8631 84.25 124.25 161 0 16.89999961853 2168.2329773903 32643.356595701
19875	650606 5417 5320 8631 84 124.25 162 184.17810058594 483.25912475586 64935.419891357 27755966.035788
19874	656023 5429 5320 8631 84 124.25 162 486.85000610352 731.22476196289 86424.080886841 46976876.532686
vector 19965  IntersectionExampleScenario.node[35].veinsmobility  posx  ETV
vector 19966  IntersectionExampleScenario.node[35].veinsmobility  posy  ETV
vector 19967  IntersectionExampleScenario.node[35].veinsmobility  speed  ETV
vector 19968  IntersectionExampleScenario.node[35].veinsmobility  acceleration  ETV
vector 19969  IntersectionExampleScenario.node[35].veinsmobility  co2emission  ETV
vector 19972  IntersectionExampleScenario.node[36].veinsmobility  posx  ETV
vector 19973  IntersectionExampleScenario.node[36].veinsmobility  posy  ETV
vector 19974  IntersectionExampleScenario.node[36].veinsmobility  speed  ETV
vector 19975  IntersectionExampleScenario.node[36].veinsmobility  acceleration  ETV
vector 19976  IntersectionExampleScenario.node[36].veinsmobility  co2emission  ETV
vector 19979  IntersectionExampleScenario.node[37].veinsmobility  posx  ETV
vector 19980  IntersectionExampleScenario.node[37].veinsmobility  posy  ETV
vector 19986  IntersectionExampleScenario.node[38].veinsmobility  posx  ETV
vector 19987  IntersectionExampleScenario.node[38].veinsmobility  posy  ETV
vector 19981  IntersectionExampleScenario.node[37].veinsmobility  speed  ETV
vector 19988  IntersectionExampleScenario.node[38].veinsmobility  speed  ETV
vector 19982  IntersectionExampleScenario.node[37].veinsmobility  acceleration  ETV
vector 19983  IntersectionExampleScenario.node[37].veinsmobility  co2emission  ETV
vector 19989  IntersectionExampleScenario.node[38].veinsmobility  acceleration  ETV
vector 19990  IntersectionExampleScenario.node[38].veinsmobility  co2emission  ETV
vector 19993  IntersectionExampleScenario.node[39].veinsmobility  posx  ETV
vector 19994  IntersectionExampleScenario.node[39].veinsmobility  posy  ETV
vector 19995  IntersectionExampleScenario.node[39].veinsmobility  speed  ETV
vector 20000  IntersectionExampleScenario.node[40].veinsmobility  posx  ETV
vector 20001  IntersectionExampleScenario.node[40].veinsmobility  posy  ETV
vector 19996  IntersectionExampleScenario.node[39].veinsmobility  acceleration  ETV
vector 19997  IntersectionExampleScenario.node[39].veinsmobility  co2emission  ETV
vector 20002  IntersectionExampleScenario.node[40].veinsmobility  speed  ETV
vector 20003  IntersectionExampleScenario.node[40].veinsmobility  acceleration  ETV
vector 20004  IntersectionExampleScenario.node[40].veinsmobility  co2emission  ETV
vector 20007  IntersectionExampleScenario.node[41].veinsmobility  posx  ETV
vector 20008  IntersectionExampleScenario.node[41].veinsmobility  posy  ETV
vector 20009  IntersectionExampleScenario.node[41].veinsmobility  speed  ETV
vector 20010  IntersectionExampleScenario.node[41].veinsmobility  acceleration  ETV
vector 20011  IntersectionExampleScenario.node[41].veinsmobility  co2emission  ETV
vector 20014  IntersectionExampleScenario.node[42].veinsmobility  posx  ETV
vector 20015  IntersectionExampleScenario.node[42].veinsmobility  posy  ETV
vector 20016  IntersectionExampleScenario.node[42].veinsmobility  speed  ETV
vector 20017  IntersectionExampleScenario.node[42].veinsmobility  acceleration  ETV
vector 20018  IntersectionExampleScenario.node[42].veinsmobility  co2emission  ETV
vector 20021  IntersectionExampleScenario.node[43].veinsmobility  posx  ETV
vector 20022  IntersectionExampleScenario.node[43].veinsmobility  posy  ETV
vector 20023  IntersectionExampleScenario.node[43].veinsmobility  speed  ETV
vector 20024  IntersectionExampleScenario.node[43].veinsmobility  acceleration  ETV
vector 20025  IntersectionExampleScenario.node[43].veinsmobility  co2emission  ETV
19857	665061 7344 5207 11071 81.5 142.25 244 0.973 11.00486315618 585.77767892748 2586.4315370774
19856	672405 6634 5207 11071 81.5 142.25 244 -7.0648303031921 4 34.77654838562 437.73045877993
19855	679039 7043 5196 11071 81.25 142.25 245 0 14.75 2207.860206008 29640.440621381
19854	686082 8311 5185 11071 81 142.25 246 234.93939208984 486.85000610352 110733.07952881 51031587.996934
19853	694393 8307 5185 11071 81 142.25 246 483.14999389648 785.82187652588 134801.76582336 75986960.272899
19864	702700 7283 5250 11102 82.5 142.5 241 0.973 11.810082123732 622.02300808115 2937.7225743551
19863	709983 6682 5250 11102 82.5 142.5 241 -4.5 2.5 39.190130233765 462.51811413859
19862	716665 6929 5239 11102 82.25 142.5 242 0 15.875 2271.140724659 31836.64137698
19861	723594 8203 5228 11102 82 142.5 243 486.85000610352 732.96250915527 126371.77661133 66770504.118229
19860	731797 8202 5228 11102 82 142.5 243 486.85000610352 807.99687957764 135537.23851013 77994863.865394
vector 20028  IntersectionExampleScenario.node[44].veinsmobility  posx  ETV
vector 20029  IntersectionExampleScenario.node[44].veinsmobility  posy  ETV
vector 20035  IntersectionExampleScenario.node[45].veinsmobility  posx  ETV
vector 20036  IntersectionExampleScenario.node[45].veinsmobility  posy  ETV
vector 20030  IntersectionExampleScenario.node[44].veinsmobility  speed  ETV
vector 20037  IntersectionExampleScenario.node[45].veinsmobility  speed  ETV
vector 20031  IntersectionExampleScenario.node[44].veinsmobility  acceleration  ETV
vector 20032  IntersectionExampleScenario.node[44].veinsmobility  co2emission  ETV
vector 20038  IntersectionExampleScenario.node[45].veinsmobility  acceleration  ETV
vector 20039  IntersectionExampleScenario.node[45].veinsmobility  co2emission  ETV
vector 20042  IntersectionExampleScenario.node[46].veinsmobility  posx  ETV
vector 20043  IntersectionExampleScenario.node[46].veinsmobility  posy  ETV
vector 20044  IntersectionExampleScenario.node[46].veinsmobility  speed  ETV
19885	741033 7771 5369 11482 84.75 145.5 244 0.973 11.00486315618 597.1762575476 2697.1118101794
19884	748804 7727 5369 11482 84.75 145.5 244 -4.5 2.5000009536743 35.795072555542 368.03945683093
19883	756531 7999 5352 11482 84.5 145.5 245 0 14.997289657593 2320.5228752661 30835.114050666
19882	764530 8325 5335 11482 84.25 145.5 246 235.99694824219 486.85000610352 110952.62426758 51201367.794467
19881	772855 8333 5335 11482 84.25 145.5 246 483.12435913086 813.79532623291 138215.87277222 80181920.370957
vector 20045  IntersectionExampleScenario.node[46].veinsmobility  acceleration  ETV
vector 20046  IntersectionExampleScenario.node[46].veinsmobility  co2emission  ETV
19892	781357 7529 5577 11737 87.75 147.5 240 0.973 11.810082123732 627.9894692994 3093.6655406456
19891	788886 7769 5577 11737 87.75 147.5 240 -4.5 2.5 38.680875778198 434.92045332271
19890	796655 7850 5558 11737 87.5 147.5 241 0 15.875 2299.9609219059 30259.909826933
19889	804505 8222 5539 11737 87.25 147.5 242 486.85000610352 735.33276367188 126099.6525116 66791439.475097
19888	812727 8208 5539 11737 87.25 147.5 242 486.80703735352 812.58361053467 137022.19943237 79921584.470486
vector 20049  IntersectionExampleScenario.node[47].veinsmobility  posx  ETV
vector 20050  IntersectionExampleScenario.node[47].veinsmobility  posy  ETV
vector 20051  IntersectionExampleScenario.node[47].veinsmobility  speed  ETV
vector 20052  IntersectionExampleScenario.node[47].veinsmobility  acceleration  ETV
vector 20053  IntersectionExampleScenario.node[47].veinsmobility  co2emission  ETV
vector 20056  IntersectionExampleScenario.node[48].veinsmobility  posx  ETV
vector 20057  IntersectionExampleScenario.node[48].veinsmobility  posy  ETV
vector 20058  IntersectionExampleScenario.node[48].veinsmobility  speed  ETV
vector 20059  IntersectionExampleScenario.node[48].veinsmobility  acceleration  ETV
vector 20060  IntersectionExampleScenario.node[48].veinsmobility  co2emission  ETV
vector 20063  IntersectionExampleScenario.node[49].veinsmobility  posx  ETV
vector 20064  IntersectionExampleScenario.node[49].veinsmobility  posy  ETV
vector 20065  IntersectionExampleScenario.node[49].veinsmobility  speed  ETV
vector 20070  IntersectionExampleScenario.node[50].veinsmobility  posx  ETV
vector 20071  IntersectionExampleScenario.node[50].veinsmobility  posy  ETV
vector 20066  IntersectionExampleScenario.node[49].veinsmobility  acceleration  ETV
vector 20067  IntersectionExampleScenario.node[49].veinsmobility  co2emission  ETV
19906	822292 6596 6413 12266 99 151.5 211 0.973 10.756497587458 526.7881224707 2366.0054343148
19905	828888 6742 6413 12266 99 151.5 211 -4.5 2.5 33.079023361206 285.79741828102
19904	835630 6977 6396 12266 98.75 151.5 212 2.1088838577271 14.39999961853 2187.5280394554 26229.339973026
19903	842607 7299 6379 12266 98.5 151.5 213 486.85000610352 734.10217285156 112689.97865295 60720334.954736
19902	849906 7279 6379 12266 98.5 151.5 213 486.82391357422 785.82187652588 120432.63998413 69973743.70943
vector 20072  IntersectionExampleScenario.node[50].veinsmobility  speed  ETV
vector 20073  IntersectionExampleScenario.node[50].veinsmobility  acceleration  ETV
vector 20074  IntersectionExampleScenario.node[50].veinsmobility  co2emission  ETV
vector 20077  IntersectionExampleScenario.node[51].veinsmobility  posx  ETV
vector 20078  IntersectionExampleScenario.node[51].veinsmobility  posy  ETV
vector 20079  IntersectionExampleScenario.node[51].veinsmobility  speed  ETV
vector 20080  IntersectionExampleScenario.node[51].veinsmobility  acceleration  ETV
vector 20081  IntersectionExampleScenario.node[51].veinsmobility  co2emission  ETV
vector 20084  IntersectionExampleScenario.node[52].veinsmobility  posx  ETV
vector 20085  IntersectionExampleScenario.node[52].veinsmobility  posy  ETV
vector 20086  IntersectionExampleScenario.node[52].veinsmobility  speed  ETV
vector 20087  IntersectionExampleScenario.node[52].veinsmobility  acceleration  ETV
vector 20088  IntersectionExampleScenario.node[52].veinsmobility  co2emission  ETV
19899	858234 7864 5733 12893 89.75 155.75 265 0.973 11.36141391502 615.34576973841 2812.7577228114
19898	866098 7266 5733 12893 89.75 155.75 265 -8.6810245513916 4 36.134572982788 473.1830623113
19897	873364 7444 5712 12893 89.5 155.75 266 0 15.25 2178.0970487595 29705.218555888
19896	880808 9108 5691 12893 89.25 155.75 267 486.63604736328 785.82187652588 145341.35596466 81231587.797409
19895	889916 9057 5691 12893 89.25 155.75 267 236.32275390625 483.14999389648 120496.92910767 55506489.71973
19934	898973 6020 7214 13110 110.25 157.25 189 0.973 11.450879080643 532.89997696636 2726.7798709298
19933	904993 6102 7214 13110 110.25 157.25 189 -2.109619140625 2.5 36.813589096069 288.42944374808
19932	911095 6268 7191 13110 110 157.25 190 2.3590698242188 15.375 2211.8813247681 29016.892954885
19931	917363 6575 7170 13110 109.75 157.25 191 483.12100219727 785.82187652588 107877.10340118 62788932.222172
19930	923938 6575 7170 13110 109.75 157.25 191 483.14999389648 734.3345489502 100967.75363159 54434468.4738
19913	930513 6713 6808 13110 104.75 157.25 211 0.973 11.200708441096 572.88390353569 2644.6666100612
19912	937226 6306 6808 13110 104.75 157.25 211 -7.4570107460022 4 37.32285118103 461.14258630515
19911	943532 6764 6789 13110 104.5 157.25 212 0 15.02499961853 2196.9555546641 30437.781264839
19910	950296 7306 6770 13110 104.25 157.25 213 184.17810058594 486.85000610352 88592.432342529 38849860.453031
19909	957602 7329 6770 13110 104.25 157.25 213 237.66186523438 486.85000610352 95188.034942627 43608681.538601
19955	964931 5164 8370 13484 122 160 153 0.973 11.691198369365 486.27762341794 2704.4546300428
19954	970095 4897 8370 13484 122 160 153 -3.8441696166992 2.5 38.850629806519 221.03320531643
19953	974992 5109 8343 13484 121.75 160 154 5.6500000953674 15.709851264954 2213.1531715393 32467.874542658
19952	980101 5346 8316 13484 121.5 160 155 184.17810058594 732.14363098145 69405.529769897 35172459.71929
19951	985447 5371 8316 13484 121.5 160 155 486.85000610352 486.85000610352 75461.750946045 36738553.908664
vector 20091  IntersectionExampleScenario.node[53].veinsmobility  posx  ETV
vector 20092  IntersectionExampleScenario.node[53].veinsmobility  posy  ETV
vector 20093  IntersectionExampleScenario.node[53].veinsmobility  speed  ETV
vector 20094  IntersectionExampleScenario.node[53].veinsmobility  acceleration  ETV
vector 20095  IntersectionExampleScenario.node[53].veinsmobility  co2emission  ETV
19941	991219 6596 7237 13617 110.5 161 203 0.973 10.916047529558 567.72116045419 2759.1562614358
19940	997815 6625 7237 13617 110.5 161 203 -4.5 2.5 34.097539901733 392.9462305638
19939	1004440 6753 7214 13617 110.25 161 204 3.7110660076141 14.657852172852 2287.1665315628 28373.328563876
19938	1011193 7057 7191 13617 110 161 205 486.74221801758 810.23281097412 118759.42759705 71146409.547058
19937	1018250 7067 7191 13617 110 161 205 235.25762939453 483.14999389648 90167.608459473 40740038.354236
19962	1025317 5231 8428 13848 122.5 162.75 162 0.973 11.450879080643 532.41378572133 3266.3803255459
19961	1030548 5171 8428 13848 122.5 162.75 162 -3.2728118896484 2.5 37.15309715271 290.7906043205
19960	1035719 5360 8399 13848 122.25 162.75 163 5.6500000953674 15.375 2204.4954853058 30632.135557339
19959	1041079 5683 8370 13848 122 162.75 164 483.14999389648 785.82187652588 93872.311073303 55530081.692761
19958	1046762 5682 8370 13848 122 162.75 164 483.14999389648 732.46759033203 87754.032745361 47929136.59901
vector 20098  IntersectionExampleScenario.node[54].veinsmobility  posx  ETV
vector 20099  IntersectionExampleScenario.node[54].veinsmobility  posy  ETV
vector 20105  IntersectionExampleScenario.node[55].veinsmobility  posx  ETV
vector 20106  IntersectionExampleScenario.node[55].veinsmobility  posy  ETV
vector 20100  IntersectionExampleScenario.node[54].veinsmobility  speed  ETV
vector 20107  IntersectionExampleScenario.node[55].veinsmobility  speed  ETV
vector 20101  IntersectionExampleScenario.node[54].veinsmobility  acceleration  ETV
vector 20102  IntersectionExampleScenario.node[54].veinsmobility  co2emission  ETV
vector 20108  IntersectionExampleScenario.node[55].veinsmobility  acceleration  ETV
vector 20109  IntersectionExampleScenario.node[55].veinsmobility  co2emission  ETV
vector 20112  IntersectionExampleScenario.node[56].veinsmobility  posx  ETV
vector 20113  IntersectionExampleScenario.node[56].veinsmobility  posy  ETV
vector 20114  IntersectionExampleScenario.node[56].veinsmobility  speed  ETV
vector 20115  IntersectionExampleScenario.node[56].veinsmobility  acceleration  ETV
vector 20116  IntersectionExampleScenario.node[56].veinsmobility  co2emission  ETV
vector 20119  IntersectionExampleScenario.node[57].veinsmobility  posx  ETV
vector 20120  IntersectionExampleScenario.node[57].veinsmobility  posy  ETV
vector 20121  IntersectionExampleScenario.node[57].veinsmobility  speed  ETV
vector 20122  IntersectionExampleScenario.node[57].veinsmobility  acceleration  ETV
vector 20123  IntersectionExampleScenario.node[57].veinsmobility  co2emission  ETV
19976	1054048 5404 8894 14423 126.5 166.5 161 0.973 11.200708441096 510.13344944075 2608.3111711833
19975	1059452 5306 8894 14423 126.5 166.5 161 -3.4096584320068 2.5 38.511121749878 264.85013077235
19974	1064758 5343 8865 14423 126.25 166.5 162 5.6500000953674 15.339520454407 2207.0674262047 31398.791353401
19973	1070101 5664 8835 14423 126 166.5 163 486.66857910156 792.02188110352 93721.854507446 55724312.256737
19972	1075765 5651 8835 14423 126 166.5 163 237.36712646484 483.14999389648 70614.782592773 31513847.666644
vector 20126  IntersectionExampleScenario.node[58].veinsmobility  posx  ETV
vector 20127  IntersectionExampleScenario.node[58].veinsmobility  posy  ETV
vector 20128  IntersectionExampleScenario.node[58].veinsmobility  speed  ETV
vector 20129  IntersectionExampleScenario.node[58].veinsmobility  acceleration  ETV
vector 20130  IntersectionExampleScenario.node[58].veinsmobility  co2emission  ETV
19990	1081817 5657 9134 15050 128.5 170.25 168 0.973 10.916047529558 483.88414960107 2351.4292781728
19989	1087474 5127 9134 15050 128.5 170.25 168 -3.2858963012695 2.5 34.437047958374 246.25479750237
19988	1092601 5581 9101 15050 128.25 170.25 169 5.6500000953674 14.625 2192.2882137299 29479.874466549
19987	1098182 5895 9068 15050 128 170.25 170 184.17810058594 483.14999389648 67704.017333984 28772979.204451
19986	1104077 5912 9068 15050 128 170.25 170 486.85000610352 735.58744812012 91651.304397583 50418382.56425
19997	1109989 5596 9232 15174 129.25 171 168 0.973 11.037045125771 526.54746116408 2653.5383125449
19996	1115585 5744 9232 15174 129.25 171 168 -4.5 2.5 37.439790725708 295.66603367384
19995	1121329 5842 9199 15174 129 171 169 5.6500000953674 16.185585021973 2269.99289608 32091.017707256
19994	1127171 5891 9166 15174 128.75 171 170 161.1796875 483.14999389648 66347.552734375 28037022.453484
19993	1133062 5910 9166 15174 128.75 171 170 486.85000610352 732.07788085938 91160.952941895 49844684.845646
19920	1138972 7835 7078 15460 108.5 172.75 258 0.97223939240464 11.648172402475 630.4623850702 2842.2811665421
19919	1146807 7568 7078 15460 108.5 172.75 258 -7.1630792617798 4 38.680875778198 455.96906807133
19918	1154375 7572 7059 15460 108.25 172.75 259 0 15.64999961853 2218.2906076908 31327.610060813
19917	1161947 8993 7040 15460 108 172.75 260 483.14999389648 483.14999389648 125618.99841309 60692818.316565
19916	1170940 8953 7040 15460 108 172.75 260 184.17810058594 734.7222442627 119152.86242676 58796740.331314
vector 20133  IntersectionExampleScenario.node[59].veinsmobility  posx  ETV
vector 20134  IntersectionExampleScenario.node[59].veinsmobility  posy  ETV
vector 20135  IntersectionExampleScenario.node[59].veinsmobility  speed  ETV
vector 20136  IntersectionExampleScenario.node[59].veinsmobility  acceleration  ETV
vector 20137  IntersectionExampleScenario.node[59].veinsmobility  co2emission  ETV
19927	1180294 8338 7151 15743 109.5 174.5 261 0.973 11.648172402475 643.83341427362 2872.7762192145
19926	1188632 8481 7151 15743 109.5 174.5 261 -4.5 2.5 38.51141166687 427.14525286788
19925	1197113 8459 7132 15743 109.25 174.5 262 0 15.64999961853 2304.2727981824 32337.419327905
19924	1205572 9101 7113 15743 109 174.5 263 483.14999389648 483.14999389648 127068.44839478 61393120.066371
19923	1214673 9044 7113 15743 109 174.5 263 162.00311279297 733.21569824219 117841.02677917 57482014.210823
19948	1223717 8113 7540 16060 113.75 176.5 252 0.973 11.810082123732 633.51248350599 3119.1096021564
19947	1231830 8345 7540 16060 113.75 176.5 252 -3.6650984287262 2.5 40.038900375366 370.07168046394
19946	1240175 8431 7515 16060 113.5 176.5 253 0 15.875 2238.2752527548 30546.623604088
19945	1248606 8780 7490 16060 113.25 176.5 254 238.89575195312 483.14999389648 114873.06295776 52982367.274107
19944	1257386 8774 7490 16060 113.25 176.5 254 168.72967529297 483.14999389648 105125.75109863 45705903.564083
vector 20140  IntersectionExampleScenario.node[60].veinsmobility  posx  ETV
vector 20141  IntersectionExampleScenario.node[60].veinsmobility  posy  ETV
vector 20142  IntersectionExampleScenario.node[60].veinsmobility  speed  ETV
vector 20143  IntersectionExampleScenario.node[60].veinsmobility  acceleration  ETV
vector 20144  IntersectionExampleScenario.node[60].veinsmobility  co2emission  ETV
vector 20147  IntersectionExampleScenario.node[61].veinsmobility  posx  ETV
vector 20148  IntersectionExampleScenario.node[61].veinsmobility  posy  ETV
vector 20149  IntersectionExampleScenario.node[61].veinsmobility  speed  ETV
vector 20150  IntersectionExampleScenario.node[61].veinsmobility  acceleration  ETV
vector 20151  IntersectionExampleScenario.node[61].veinsmobility  co2emission  ETV
vector 20154  IntersectionExampleScenario.node[62].veinsmobility  posx  ETV
vector 20155  IntersectionExampleScenario.node[62].veinsmobility  posy  ETV
vector 20156  IntersectionExampleScenario.node[62].veinsmobility  speed  ETV
vector 20157  IntersectionExampleScenario.node[62].veinsmobility  acceleration  ETV
vector 20158  IntersectionExampleScenario.node[62].veinsmobility  co2emission  ETV
vector 20161  IntersectionExampleScenario.node[63].veinsmobility  posx  ETV
vector 20162  IntersectionExampleScenario.node[63].veinsmobility  posy  ETV
vector 20163  IntersectionExampleScenario.node[63].veinsmobility  speed  ETV
19969	1267595 7491 8806 17600 125.75 186.25 243 0.973 11.648172402475 611.47672639663 2969.9468706755
19968	1275086 6837 8806 17600 125.75 186.25 243 -7.4922199249268 4 38.171613693237 481.23603371837
19967	1281923 7146 8777 17600 125.5 186.25 244 0 15.64999961853 2197.6315107346 30998.858005783
19966	1289069 8533 8747 17600 125.25 186.25 245 237.83361816406 486.85000610352 110917.30838013 51316947.797491
19965	1297602 8526 8747 17600 125.25 186.25 245 483.14999389648 785.82187652588 133865.12734222 75215856.717974
vector 20164  IntersectionExampleScenario.node[63].veinsmobility  acceleration  ETV
vector 20165  IntersectionExampleScenario.node[63].veinsmobility  co2emission  ETV
20004	1306297 7738 9302 17933 129.75 188.5 236 0.973 11.648172402475 612.53576784614 2980.8983437298
20003	1314035 7703 9302 17933 129.75 188.5 236 -4.5 2.5 39.529638290405 446.2462402695
20002	1321738 7825 9267 17933 129.5 188.5 237 0 15.64999961853 2137.3303538095 30070.149007867
20001	1329563 8301 9232 17933 129.25 188.5 238 238.48156738281 486.85000610352 107721.19717407 49824492.875953
20000	1337864 8289 9232 17933 129.25 188.5 238 482.95816040039 770.40704345703 129613.19213867 72323190.994244
vector 20168  IntersectionExampleScenario.node[64].veinsmobility  posx  ETV
vector 20169  IntersectionExampleScenario.node[64].veinsmobility  posy  ETV
vector 20175  IntersectionExampleScenario.node[65].veinsmobility  posx  ETV
vector 20176  IntersectionExampleScenario.node[65].veinsmobility  posy  ETV
vector 20170  IntersectionExampleScenario.node[64].veinsmobility  speed  ETV
vector 20182  IntersectionExampleScenario.node[66].veinsmobility  posx  ETV
vector 20183  IntersectionExampleScenario.node[66].veinsmobility  posy  ETV
vector 20171  IntersectionExampleScenario.node[64].veinsmobility  acceleration  ETV
vector 20172  IntersectionExampleScenario.node[64].veinsmobility  co2emission  ETV
vector 20177  IntersectionExampleScenario.node[65].veinsmobility  speed  ETV
vector 20178  IntersectionExampleScenario.node[65].veinsmobility  acceleration  ETV
vector 20179  IntersectionExampleScenario.node[65].veinsmobility  co2emission  ETV
vector 20184  IntersectionExampleScenario.node[66].veinsmobility  speed  ETV
vector 20185  IntersectionExampleScenario.node[66].veinsmobility  acceleration  ETV
vector 20186  IntersectionExampleScenario.node[66].veinsmobility  co2emission  ETV
19983	1347356 8213 9134 18260 128.5 190.75 250 0.973 11.990504229548 652.01400188258 3237.3445008024
19982	1355569 8306 9134 18260 128.5 190.75 250 -4.5 2.5000009536743 39.529638290405 455.74757516257
19981	1363875 8523 9101 18260 128.25 190.75 251 0 16.125 2275.3922388144 31056.698800236
19980	1372398 8793 9068 18260 128 190.75 252 486.85000610352 486.85000610352 122686.20153809 59729777.967634
19979	1381191 8760 9068 18260 128 190.75 252 235.72229003906 800.04531860352 133289.67465973 75280761.963754
vector 20189  IntersectionExampleScenario.node[67].veinsmobility  posx  ETV
vector 20190  IntersectionExampleScenario.node[67].veinsmobility  posy  ETV
vector 20191  IntersectionExampleScenario.node[67].veinsmobility  speed  ETV
vector 20192  IntersectionExampleScenario.node[67].veinsmobility  acceleration  ETV
vector 20193  IntersectionExampleScenario.node[67].veinsmobility  co2emission  ETV
20018	1390352 8100 9690 18717 132.5 193.75 246 0.973 11.648172402475 624.80138232436 3037.0710010293
20017	1398452 8130 9690 18717 132.5 193.75 246 -4.0000038146973 2.5 38.511121749878 391.18027528688
20016	1406582 8337 9653 18717 132.25 193.75 247 0 15.64999961853 2283.0597287808 30679.308402637
20015	1414919 8663 9616 18717 132 193.75 248 236.60125732422 486.85000610352 112332.24490356 51997063.198157
20014	1423582 8650 9616 18717 132 193.75 248 483.14999389648 803.84600830078 138822.43127441 79950960.203675
vector 20196  IntersectionExampleScenario.node[68].veinsmobility  posx  ETV
vector 20197  IntersectionExampleScenario.node[68].veinsmobility  posy  ETV
vector 20198  IntersectionExampleScenario.node[68].veinsmobility  speed  ETV
vector 20199  IntersectionExampleScenario.node[68].veinsmobility  acceleration  ETV
vector 20200  IntersectionExampleScenario.node[68].veinsmobility  co2emission  ETV
20088	1432633 5632 12745 19218 154.75 197 170 0.973 11.36141391502 561.5192666571 3285.3886695999
20087	1438265 5430 12745 19218 154.75 197 170 -3.4467926025391 2.5 37.15309715271 366.42532123675
20086	1443695 5667 12708 19218 154.5 197 171 5.6500000953674 15.25 2188.6453619003 29349.064209418
20085	1449362 6013 12671 19218 154.25 197 172 486.85000610352 733.97535705566 92134.72895813 50323048.708634
20084	1455375 6012 12671 19218 154.25 197 172 486.85000610352 785.82187652588 98336.812431335 57990507.872691
vector 20203  IntersectionExampleScenario.node[69].veinsmobility  posx  ETV
vector 20204  IntersectionExampleScenario.node[69].veinsmobility  posy  ETV
vector 20210  IntersectionExampleScenario.node[70].veinsmobility  posx  ETV
vector 20211  IntersectionExampleScenario.node[70].veinsmobility  posy  ETV
vector 20205  IntersectionExampleScenario.node[69].veinsmobility  speed  ETV
vector 20212  IntersectionExampleScenario.node[70].veinsmobility  speed  ETV
vector 20206  IntersectionExampleScenario.node[69].veinsmobility  acceleration  ETV
vector 20207  IntersectionExampleScenario.node[69].veinsmobility  co2emission  ETV
vector 20213  IntersectionExampleScenario.node[70].veinsmobility  acceleration  ETV
vector 20214  IntersectionExampleScenario.node[70].veinsmobility  co2emission  ETV
20011	1462189 8365 9546 19718 131.5 200 275 0.973 11.90022389248 670.61094290898 3186.2526759926
20010	1470554 7598 9546 19718 131.5 200 275 -27.696201324463 4 39.359884262085 1173.3515479559
20009	1478152 7838 9511 19718 131.25 200 276 0 16 2312.9702396393 33481.614773148
20008	1485990 9648 9476 19718 131 200 277 155.79296875 486.85000610352 116562.94238281 51746693.111137
20007	1495638 9662 9476 19718 131 200 277 237.38928222656 486.85000610352 126624.2487793 59007140.675601
20039	1505300 7356 11291 19928 144 201.25 230 0.96167794354377 12.099024792222 612.28054718608 3257.4713593083
20038	1512656 7411 11291 19928 144 201.25 230 -3.8460853099823 2.5000004768372 40.887662887573 363.09696019189
20037	1520067 7793 11258 19928 143.75 201.25 231 0 16.27499961853 2186.6858170647 29681.873668844
20036	1527860 8081 11225 19928 143.5 201.25 232 184.17810058594 483.14999389648 96536.011413574 42068707.173029
20035	1535941 8114 11225 19928 143.5 201.25 232 486.85000610352 733.44541931152 120847.42129517 63972437.487317
20025	1544055 8238 10088 20210 135.25 203 272 0.973 11.810082123732 645.1337133918 3115.2166538383
20024	1552293 7752 10088 20210 135.25 203 272 -8.9394130706787 4 38.850629806519 525.45519566167
20023	1560045 7752 10051 20210 135 203 273 0 15.875 2182.8184185028 30959.183272697
20022	1567797 9579 10014 20210 134.75 203 274 486.75677490234 785.82187652588 148493.52709198 82575127.922314
20021	1577376 9582 10014 20210 134.75 203 274 236.02459716797 483.14999389648 124216.43276978 57411317.041745
20032	1586958 7822 11291 20405 144 204.25 242 0.973 11.648172402475 606.82493722573 2975.5601492456
20031	1594780 7914 11291 20405 144 204.25 242 -3.9633367061615 2.500000089407 38.850629806519 346.61396799702
20030	1602694 8280 11258 20405 143.75 204.25 243 0 15.64999961853 2208.6439147983 29477.397860991
20029	1610974 8521 11225 20405 143.5 204.25 244 483.1354675293 785.82187652588 134472.59807587 76092002.878858
20028	1619495 8531 11225 20405 143.5 204.25 244 483.14999389648 733.3578338623 126245.19892883 66425426.19681
20116	1628026 5519 14181 20595 165 205.5 163 0.973 11.093806525473 477.23595340398 2436.4646100312
20115	1633545 5271 14181 20595 165 205.5 163 -3.8632164001465 2.5 34.437047958374 213.0881361824
20114	1638816 5491 14142 20595 164.75 205.5 164 5.6500000953674 14.875 2212.4406938553 30305.371072045
20113	1644307 5723 14103 20595 164.5 205.5 165 184.17810058594 732.28492736816 74086.557235718 37593478.985719
20112	1650030 5775 14103 20595 164.5 205.5 165 486.85000610352 486.85000610352 80330.25100708 39108783.193094
20046	1655805 7813 11515 20669 145.75 206 242 0.973 11.990504229548 629.81568041087 3155.701214542
20045	1663618 8170 11515 20669 145.75 206 242 -4.5 2.5 39.699392318726 439.80615144534
20044	1671788 8288 11482 20669 145.5 206 243 0 16.125 2295.2233993262 31097.168174966
20043	1680076 8514 11449 20669 145.25 206 244 236.1669921875 805.05782318115 128867.11816406 72604225.794765
20042	1688590 8540 11449 20669 145.25 206 244 483.14999389648 483.14999389648 117888.59851074 56957875.65093
20074	1697130 7556 12340 21266 152 210.25 234 0.973 11.450879080643 582.2752760921 2833.5509119115
20073	1704686 7631 12340 21266 152 210.25 234 -4.5 2.5 36.474081039429 418.25950199332
20072	1712317 7844 12303 21266 151.75 210.25 235 0 15.375 2211.5310120396 28549.255986401
20071	1720161 8245 12266 21266 151.5 210.25 236 483.14999389648 785.82187652588 131589.6137619 75298360.691308
20070	1728406 8242 12266 21266 151.5 210.25 236 483.14999389648 733.90306091309 122727.83511353 64957346.927452
vector 20217  IntersectionExampleScenario.node[71].veinsmobility  posx  ETV
vector 20218  IntersectionExampleScenario.node[71].veinsmobility  posy  ETV
vector 20219  IntersectionExampleScenario.node[71].veinsmobility  speed  ETV
vector 20220  IntersectionExampleScenario.node[71].veinsmobility  acceleration  ETV
vector 20221  IntersectionExampleScenario.node[71].veinsmobility  co2emission  ETV
vector 20224  IntersectionExampleScenario.node[72].veinsmobility  posx  ETV
vector 20225  IntersectionExampleScenario.node[72].veinsmobility  posy  ETV
vector 20226  IntersectionExampleScenario.node[72].veinsmobility  speed  ETV
vector 20227  IntersectionExampleScenario.node[72].veinsmobility  acceleration  ETV
vector 20228  IntersectionExampleScenario.node[72].veinsmobility  co2emission  ETV
20053	1737450 8386 11834 22175 148.25 217.25 277 0.97223939240464 11.810082123732 650.10828775974 3121.1464179231
20052	1745836 7831 11834 22175 148.25 217.25 277 -8.5045146942139 4 38.680875778198 537.84420819693
20051	1753667 7822 11801 22175 148 217.25 278 0 15.875 2183.5244431496 31031.901815347
20050	1761489 9695 11768 22175 147.75 217.25 279 235.25335693359 483.14999389648 126558.79763794 58523766.854417
20049	1771184 9742 11768 22175 147.75 217.25 279 184.17810058594 483.36395263672 119651.09133911 53424682.679689
20081	1780926 8222 12489 22234 153 217.75 260 0.973 11.990504229548 649.68576960855 3187.5168537679
20080	1789148 8000 12489 22234 153 217.75 260 -4.5 2.5 41.227170944214 475.35404861166
20079	1797148 8052 12452 22234 152.75 217.75 261 0 16.125 2116.0615835274 30683.417157314
20078	1805200 9171 12414 22234 152.5 217.75 262 483.14999389648 483.14999389648 126585.29840088 61159686.149769
20077	1814371 9072 12414 22234 152.5 217.75 262 210.14141845703 734.27734375 121137.32670593 59513942.379128
vector 20231  IntersectionExampleScenario.node[73].veinsmobility  posx  ETV
vector 20232  IntersectionExampleScenario.node[73].veinsmobility  posy  ETV
vector 20233  IntersectionExampleScenario.node[73].veinsmobility  speed  ETV
vector 20234  IntersectionExampleScenario.node[73].veinsmobility  acceleration  ETV
vector 20235  IntersectionExampleScenario.node[73].veinsmobility  co2emission  ETV
vector 20238  IntersectionExampleScenario.node[74].veinsmobility  posx  ETV
vector 20239  IntersectionExampleScenario.node[74].veinsmobility  posy  ETV
vector 20240  IntersectionExampleScenario.node[74].veinsmobility  speed  ETV
vector 20241  IntersectionExampleScenario.node[74].veinsmobility  acceleration  ETV
vector 20242  IntersectionExampleScenario.node[74].veinsmobility  co2emission  ETV
20060	1824245 9307 12130 22733 150.5 222 287 0.973 10.916047529558 665.15648087688 2957.6001528314
20059	1833552 9556 12130 22733 150.5 222 287 -4.5 2.5 35.625318527222 435.85006879994
20058	1843108 9665 12097 22733 150.25 222 288 0 15.042879104614 2244.8808014793 27901.80725146
20057	1852773 10104 12064 22733 150 222 289 237.94714355469 483.14999389648 131153.71920776 60653728.043018
20056	1862877 10080 12064 22733 150 222 289 167.29217529297 483.17028808594 118677.17388916 51382726.169144
vector 20245  IntersectionExampleScenario.node[75].veinsmobility  posx  ETV
vector 20246  IntersectionExampleScenario.node[75].veinsmobility  posy  ETV
vector 20247  IntersectionExampleScenario.node[75].veinsmobility  speed  ETV
20095	1873189 8377 13584 22967 160.75 224 254 0.973 11.990504229548 659.14655205665 3279.2226317553
20094	1881566 8398 13584 22967 160.75 224 254 -4.5 2.5 42.585195541382 433.91825247352
20093	1889964 8679 13551 22967 160.5 224 255 0 16.345123291016 2215.711434464 31022.795983471
20092	1898643 8960 13517 22967 160.25 224 256 483.14999389648 483.14999389648 123686.3984375 59759082.650156
20091	1907603 8922 13517 22967 160.25 224 256 184.17810058594 732.21464538574 113616.40562439 54400549.735444
vector 20252  IntersectionExampleScenario.node[76].veinsmobility  posx  ETV
vector 20253  IntersectionExampleScenario.node[76].veinsmobility  posy  ETV
vector 20248  IntersectionExampleScenario.node[75].veinsmobility  acceleration  ETV
vector 20249  IntersectionExampleScenario.node[75].veinsmobility  co2emission  ETV
20067	1916848 9603 12266 22998 151.5 224.25 292 0.973 10.916047529558 672.13874223475 2694.5929112969
20066	1926451 9907 12266 22998 151.5 224.25 292 -4.5 2.5 37.15309715271 429.67067972933
20065	1936358 9944 12231 22998 151.25 224.25 293 0 14.984387397766 2305.1593323369 28555.417690914
20064	1946302 10285 12196 22998 151 224.25 294 237.24743652344 483.14999389648 133731.27780151 61954377.529277
20063	1956587 10256 12196 22998 151 224.25 294 153.56011962891 483.14999389648 118846.95272827 50883103.812435
vector 20254  IntersectionExampleScenario.node[76].veinsmobility  speed  ETV
vector 20255  IntersectionExampleScenario.node[76].veinsmobility  acceleration  ETV
vector 20256  IntersectionExampleScenario.node[76].veinsmobility  co2emission  ETV
20109	1967090 8441 13955 23309 163.5 226.75 254 0.973 12.099024792222 699.56669204591 3565.4059319548
20108	1975531 8451 13955 23309 163.5 226.75 254 -4.5 2.5000009536743 43.943296432495 530.33612306452
20107	1983982 8591 13918 23309 163.25 226.75 255 0 16.700031280518 2237.4282631353 31405.163120462
20106	1992573 8935 13881 23309 163 226.75 256 238.74377441406 483.14999389648 116196.67034912 53729393.539442
20105	2001508 8911 13881 23309 163 226.75 256 169.95465087891 483.14999389648 104580.73114014 44740295.427342
20130	2010419 7794 14878 23730 169.25 230.25 245 0.973 11.36141391502 609.00217601447 2917.453130893
20129	2018213 8073 14878 23730 169.25 230.25 245 -3.546065568924 2.5 37.492597579956 405.08057884098
20128	2026286 7986 14835 23730 169 230.25 246 0 15.269045829773 2176.743614614 27891.797945536
20127	2034272 8639 14792 23730 168.75 230.25 247 238.61712646484 483.14999389648 111155.23171997 51080717.501583
20126	2042911 8598 14792 23730 168.75 230.25 247 184.17810058594 483.14999389648 100713.48812866 42881155.927723
20102	2051509 8374 13955 23897 163.5 231.75 274 0.973 11.200708441096 625.71822392823 2763.4792853841
20101	2059883 7481 13955 23897 163.5 231.75 274 -7.3623170852661 4 35.964826583862 478.48586176674
20100	2067364 7937 13918 23897 163.25 231.75 275 0 15.02499961853 2206.6041924953 30288.77088851
20099	2075301 9660 13881 23897 163 231.75 276 486.85000610352 486.85000610352 134370.60168457 65418328.250266
20098	2084961 9644 13881 23897 163 231.75 276 237.70941162109 785.82187652588 141208.37770844 76518677.66925
20123	2094605 8594 14341 24032 166 233 269 0.973 12.084833064813 684.50223934247 3258.144701485
20122	2103199 8549 14341 24032 166 233 269 -4.5 2.5000038146973 41.921514511108 462.29838623143
20121	2111748 8697 14300 24032 165.75 233 270 0 16.255378723145 2274.8256096048 32250.879364838
20120	2120445 9484 14259 24032 165.5 233 271 486.85000610352 486.85000610352 131936.35165405 64233213.608051
20119	2129929 9455 14259 24032 165.5 233 271 237.53991699219 801.41563415527 140685.06108856 77523162.829291
vector 20259  IntersectionExampleScenario.node[77].veinsmobility  posx  ETV
vector 20260  IntersectionExampleScenario.node[77].veinsmobility  posy  ETV
vector 20261  IntersectionExampleScenario.node[77].veinsmobility  speed  ETV
vector 20262  IntersectionExampleScenario.node[77].veinsmobility  acceleration  ETV
vector 20263  IntersectionExampleScenario.node[77].veinsmobility  co2emission  ETV
20137	2139785 7986 15620 24282 173.75 235.5 248 0.973 11.200708441096 602.02138334606 2714.4453217154
20136	2147771 8383 15620 24282 173.75 235.5 248 -3.9180684089661 2.5 37.15309715271 318.03996852521
20135	2156154 8553 15579 24282 173.5 235.5 249 0 15.065004348755 2214.3664480802 28908.057325483
20134	2164707 8751 15538 24282 173.25 235.5 250 486.85000610352 486.85000610352 121712.50152588 59255732.110748
20133	2173458 8728 15538 24282 173.25 235.5 250 237.02966308594 785.82187652588 130058.0016098 71876253.685273
20158	2182186 7118 16843 24477 181.5 237.75 226 0.973 12.099024792222 603.22398171073 3253.6296912275
20157	2189304 7177 16843 24477 181.5 237.75 226 -3.8546180725098 2.5 40.887662887573 386.97861622346
20156	2196481 7626 16802 24477 181.25 237.75 227 0 16.27499961853 2185.2634828314 28552.644971454
20155	2204107 7972 16761 24477 181 237.75 228 486.85000610352 733.27833557129 118888.54638672 63010537.765572
20154	2212079 7972 16761 24477 181 237.75 228 486.85000610352 785.82187652588 127788.60767365 73445037.638612
vector 20266  IntersectionExampleScenario.node[78].veinsmobility  posx  ETV
vector 20267  IntersectionExampleScenario.node[78].veinsmobility  posy  ETV
vector 20268  IntersectionExampleScenario.node[78].veinsmobility  speed  ETV
vector 20269  IntersectionExampleScenario.node[78].veinsmobility  acceleration  ETV
vector 20270  IntersectionExampleScenario.node[78].veinsmobility  co2emission  ETV
20186	2220452 6383 18185 24725 190.25 240.75 203 0.973 11.810082123732 558.75223097412 3017.4050604567
20185	2226835 6612 18185 24725 190.25 240.75 203 -3.4972567558289 2.5 39.529638290405 364.45442748224
20184	2233447 6793 18146 24725 190 240.75 204 0 15.875 2188.5467937291 28435.954432324
20183	2240240 7168 18107 24725 189.75 240.75 205 486.85000610352 734.05102539062 107902.59024048 57804398.649347
20182	2247408 7168 18107 24725 189.75 240.75 205 486.83755493164 785.82187652588 115907.86730194 67328037.49819
vector 20273  IntersectionExampleScenario.node[79].veinsmobility  posx  ETV
vector 20274  IntersectionExampleScenario.node[79].veinsmobility  posy  ETV
vector 20275  IntersectionExampleScenario.node[79].veinsmobility  speed  ETV
vector 20276  IntersectionExampleScenario.node[79].veinsmobility  acceleration  ETV
vector 20277  IntersectionExampleScenario.node[79].veinsmobility  co2emission  ETV
20151	2254977 7964 16604 25106 180 245 261 0.973 11.810082123732 642.13665758188 3140.5099614301
20150	2262941 7452 16604 25106 180 245 261 -7.0664100646973 4 39.869146347046 506.92502134201
20149	2270393 7480 16562 25106 179.75 245 262 0 15.875 2183.2232100964 31429.588007734
20148	2277873 9178 16521 25106 179.5 245 263 184.17810058594 483.36395263672 112220.38565063 49953728.039281
20147	2287051 9134 16521 25106 179.5 245 263 486.85000610352 734.37205505371 136116.31193542 71526837.722535
vector 20280  IntersectionExampleScenario.node[80].veinsmobility  posx  ETV
vector 20281  IntersectionExampleScenario.node[80].veinsmobility  posy  ETV
vector 20287  IntersectionExampleScenario.node[81].veinsmobility  posx  ETV
vector 20288  IntersectionExampleScenario.node[81].veinsmobility  posy  ETV
vector 20282  IntersectionExampleScenario.node[80].veinsmobility  speed  ETV
vector 20283  IntersectionExampleScenario.node[80].veinsmobility  acceleration  ETV
vector 20284  IntersectionExampleScenario.node[80].veinsmobility  co2emission  ETV
vector 20289  IntersectionExampleScenario.node[81].veinsmobility  speed  ETV
vector 20290  IntersectionExampleScenario.node[81].veinsmobility  acceleration  ETV
vector 20291  IntersectionExampleScenario.node[81].veinsmobility  co2emission  ETV
20179	2296987 7196 18146 25278 190 246.75 228 0.973 11.648172402475 608.50998199825 3026.2322989971
20178	2304183 6872 18146 25278 190 246.75 228 -7.2641291618347 4 39.699392318726 485.88096870943
20177	2311055 7188 18107 25278 189.75 246.75 229 0 15.949625968933 2189.9536994249 31355.571218745
20176	2318243 8044 18070 25278 189.5 246.75 230 482.94125366211 785.82187652588 126232.83856964 71307220.765881
20175	2326287 8037 18070 25278 189.5 246.75 230 483.14999389648 732.25611877441 119315.39480591 62960821.037857
vector 20294  IntersectionExampleScenario.node[82].veinsmobility  posx  ETV
vector 20295  IntersectionExampleScenario.node[82].veinsmobility  posy  ETV
vector 20296  IntersectionExampleScenario.node[82].veinsmobility  speed  ETV
vector 20297  IntersectionExampleScenario.node[82].veinsmobility  acceleration  ETV
vector 20298  IntersectionExampleScenario.node[82].veinsmobility  co2emission  ETV
20172	2334725 7682 18107 25544 189.75 249.5 240 0.973 11.810082123732 625.74801868013 3136.1782149604
20171	2342407 7920 18107 25544 189.75 249.5 240 -21.186859130859 4 39.869146347046 877.44171963341
20170	2350327 8039 18070 25544 189.5 249.5 241 0 15.875 2180.3317211121 29222.29734622
20169	2358366 8437 18035 25544 189.25 249.5 242 184.17810058594 483.21878051758 101140.15515137 44211528.32341
20168	2366803 8466 18035 25544 189.25 249.5 242 486.85000610352 733.10687255859 125808.37898254 66447267.155824
20200	2375269 7122 18906 25637 195 250.5 223 0.973 11.200708441096 558.71653037609 2640.3652574644
20199	2382391 7346 18906 25637 195 250.5 223 -3.9679028987885 2.5 35.625318527222 325.35524257123
20198	2389737 7644 18867 25637 194.75 250.5 224 0 15.02499961853 2220.1716197692 27912.019003283
20197	2397381 7834 18828 25637 194.5 250.5 225 184.17810058594 734.63925170898 100794.00671387 49495905.719331
20196	2405215 7875 18828 25637 194.5 250.5 225 486.85000610352 486.85000610352 109541.25137329 53330158.899673
20207	2413090 6999 19460 25795 198.5 252.25 216 0.973 11.200708441096 565.18882668619 2641.5862842406
20206	2420089 7008 19460 25795 198.5 252.25 216 -4.3773775100708 2.5000009536743 37.15309715271 371.85019634774
20205	2427097 7408 19417 25795 198.25 252.25 217 0 15.02499961853 2252.3390472941 29672.785403177
20204	2434505 7580 19374 25795 198 252.25 218 174.53436279297 732.24935913086 96636.426528931 47248725.055843
20203	2442085 7629 19374 25795 198 252.25 218 486.85000610352 486.85000610352 106133.30133057 51670998.400572
20221	2449714 5694 21432 25858 211.5 253 167 0.973 10.916047529558 483.34233154539 2352.7271932562
20220	2455408 5109 21432 25858 211.5 253 167 -3.4235363006592 2.5 34.606801986694 248.23828195584
20219	2460517 5571 21399 25858 211.25 253 168 5.6500000953674 14.625 2182.0807785988 29400.431826829
20218	2466088 5904 21365 25858 211 253 169 486.76089477539 785.82187652588 96681.049514771 57111377.861565
20217	2471992 5907 21365 25858 211 253 169 237.15838623047 483.14999389648 72979.504058838 32489327.255883
vector 20301  IntersectionExampleScenario.node[83].veinsmobility  posx  ETV
vector 20302  IntersectionExampleScenario.node[83].veinsmobility  posy  ETV
vector 20303  IntersectionExampleScenario.node[83].veinsmobility  speed  ETV
vector 20304  IntersectionExampleScenario.node[83].veinsmobility  acceleration  ETV
vector 20305  IntersectionExampleScenario.node[83].veinsmobility  co2emission  ETV
vector 20308  IntersectionExampleScenario.node[84].veinsmobility  posx  ETV
vector 20309  IntersectionExampleScenario.node[84].veinsmobility  posy  ETV
vector 20310  IntersectionExampleScenario.node[84].veinsmobility  speed  ETV
vector 20311  IntersectionExampleScenario.node[84].veinsmobility  acceleration  ETV
vector 20312  IntersectionExampleScenario.node[84].veinsmobility  co2emission  ETV
20228	2478701 5466 21794 26085 214.25 255.5 166 0.97223939240464 11.810082123732 573.76148057672 3606.8010322049
20227	2484167 5295 21794 26085 214.25 255.5 166 -3.5962944030762 2.5 38.680875778198 385.25987445645
20226	2489462 5516 21761 26085 214 255.5 167 5.6500000953674 15.875 2191.0307855606 30135.747107118
20225	2494978 5854 21728 26085 213.75 255.5 168 184.17810058594 483.14999389648 66828.524841309 28327208.684136
20224	2500832 5878 21728 26085 213.75 255.5 168 486.85000610352 734.58486938477 90017.352813721 49185457.362123
vector 20315  IntersectionExampleScenario.node[85].veinsmobility  posx  ETV
vector 20316  IntersectionExampleScenario.node[85].veinsmobility  posy  ETV
vector 20317  IntersectionExampleScenario.node[85].veinsmobility  speed  ETV
vector 20318  IntersectionExampleScenario.node[85].veinsmobility  acceleration  ETV
vector 20319  IntersectionExampleScenario.node[85].veinsmobility  co2emission  ETV
20144	2507111 10070 16443 26742 179 263 337 0.973 11.00486315618 711.55797234712 2992.1139758983
20143	2517181 9722 16443 26742 179 263 337 -7.1252450942993 4 33.927785873413 562.09961344568
20142	2526903 9974 16404 26742 178.75 263 338 0 14.75 2180.0068275779 26188.764583985
20141	2536877 11854 16365 26742 178.5 263 339 483.14999389648 733.40438842773 172819.91123962 89372378.622144
20140	2548731 11832 16365 26742 178.5 263 339 184.17810058594 486.85000610352 144708.76486206 64009383.429351
20165	2560563 9139 17639 26799 186.5 263.75 310 0.973 11.810082123732 686.83528892899 3188.4902148933
20164	2569702 8795 17639 26799 186.5 263.75 310 -4.5 2.5 38.511121749878 518.12025759218
20163	2578497 9034 17600 26799 186.25 263.75 311 0 15.875 2185.8160254955 27710.636586716
20162	2587531 10918 17561 26799 186 263.75 312 235.67028808594 483.14999389648 142511.14810181 66232015.712795
20161	2598449 10889 17561 26799 186 263.75 312 184.17810058594 483.14999389648 132352.04510498 58220344.368876
vector 20322  IntersectionExampleScenario.node[86].veinsmobility  posx  ETV
vector 20323  IntersectionExampleScenario.node[86].veinsmobility  posy  ETV
vector 20324  IntersectionExampleScenario.node[86].veinsmobility  speed  ETV
vector 20325  IntersectionExampleScenario.node[86].veinsmobility  acceleration  ETV
vector 20326  IntersectionExampleScenario.node[86].veinsmobility  co2emission  ETV
vector 20329  IntersectionExampleScenario.node[87].veinsmobility  posx  ETV
vector 20330  IntersectionExampleScenario.node[87].veinsmobility  posy  ETV
20193	2609893 9277 18523 26961 192.5 265.75 294 0.973 11.810082123732 690.23763328529 3313.4386039219
20192	2619170 9412 18523 26961 192.5 265.75 294 -4.0281810760498 2.5000004768372 41.057416915894 411.7197223747
20191	2628582 9604 18484 26961 192.25 265.75 295 0 15.943573951721 2187.7817984624 28116.890798616
20190	2638186 10355 18445 26961 192 265.75 296 236.05181884766 483.14999389648 135102.99499512 62750657.896263
20189	2648541 10320 18445 26961 192 265.75 296 184.17810058594 483.14999389648 124534.21502686 54405268.4192
vector 20331  IntersectionExampleScenario.node[87].veinsmobility  speed  ETV
vector 20332  IntersectionExampleScenario.node[87].veinsmobility  acceleration  ETV
vector 20333  IntersectionExampleScenario.node[87].veinsmobility  co2emission  ETV
vector 20336  IntersectionExampleScenario.node[88].veinsmobility  posx  ETV
vector 20337  IntersectionExampleScenario.node[88].veinsmobility  posy  ETV
vector 20338  IntersectionExampleScenario.node[88].veinsmobility  speed  ETV
20214	2659340 8940 19460 27115 198.5 267.5 277 0.973 11.00486315618 667.43040032149 3041.4540432826
20213	2668280 9470 19460 27115 198.5 267.5 277 -3.9588487148285 2.5 41.396924972534 367.45261690312
20212	2677750 9400 19417 27115 198.25 267.5 278 0 16.035816192627 2203.5337157175 28537.817619091
20211	2687150 9752 19374 27115 198 267.5 279 483.14999389648 731.8253326416 142790.47764587 74167978.502389
20210	2696902 9719 19374 27115 198 267.5 279 184.17810058594 486.85000610352 116293.44818115 50456574.022371
vector 20343  IntersectionExampleScenario.node[89].veinsmobility  posx  ETV
vector 20344  IntersectionExampleScenario.node[89].veinsmobility  posy  ETV
vector 20339  IntersectionExampleScenario.node[88].veinsmobility  acceleration  ETV
vector 20340  IntersectionExampleScenario.node[88].veinsmobility  co2emission  ETV
vector 20350  IntersectionExampleScenario.node[90].veinsmobility  posx  ETV
vector 20351  IntersectionExampleScenario.node[90].veinsmobility  posy  ETV
vector 20345  IntersectionExampleScenario.node[89].veinsmobility  speed  ETV
vector 20346  IntersectionExampleScenario.node[89].veinsmobility  acceleration  ETV
vector 20347  IntersectionExampleScenario.node[89].veinsmobility  co2emission  ETV
vector 20352  IntersectionExampleScenario.node[90].veinsmobility  speed  ETV
vector 20353  IntersectionExampleScenario.node[90].veinsmobility  acceleration  ETV
vector 20354  IntersectionExampleScenario.node[90].veinsmobility  co2emission  ETV
vector 20357  IntersectionExampleScenario.node[91].veinsmobility  posx  ETV
vector 20358  IntersectionExampleScenario.node[91].veinsmobility  posy  ETV
vector 20364  IntersectionExampleScenario.node[92].veinsmobility  posx  ETV
vector 20365  IntersectionExampleScenario.node[92].veinsmobility  posy  ETV
vector 20359  IntersectionExampleScenario.node[91].veinsmobility  speed  ETV
vector 20366  IntersectionExampleScenario.node[92].veinsmobility  speed  ETV
vector 20360  IntersectionExampleScenario.node[91].veinsmobility  acceleration  ETV
vector 20361  IntersectionExampleScenario.node[91].veinsmobility  co2emission  ETV
vector 20367  IntersectionExampleScenario.node[92].veinsmobility  acceleration  ETV
vector 20368  IntersectionExampleScenario.node[92].veinsmobility  co2emission  ETV
20249	2708394 5973 22998 27396 224.25 270 184 0.973 11.810082123732 571.32492482239 3188.0395003172
20248	2714367 5950 22998 27396 224.25 270 184 -2.9828491210938 2.5 39.869146347046 363.13282680993
20247	2720317 6145 22967 27396 224 270 185 3.8293342590332 15.875 2178.173930645 28847.076805319
20246	2726462 6505 22936 27396 223.75 270 186 238.48931884766 483.14999389648 81966.295776367 37067862.508007
20245	2732967 6488 22936 27396 223.75 270 186 184.17810058594 483.14999389648 74630.200622559 31697637.923151
vector 20371  IntersectionExampleScenario.node[93].veinsmobility  posx  ETV
vector 20372  IntersectionExampleScenario.node[93].veinsmobility  posy  ETV
vector 20373  IntersectionExampleScenario.node[93].veinsmobility  speed  ETV
vector 20374  IntersectionExampleScenario.node[93].veinsmobility  acceleration  ETV
vector 20375  IntersectionExampleScenario.node[93].veinsmobility  co2emission  ETV
20256	2739856 6398 23061 27721 224.75 272.75 193 0.973 11.387042968738 568.44850938238 2897.8164595839
20255	2746254 6305 23061 27721 224.75 272.75 193 -4.5 2.5 38.001859664917 393.09545579366
20254	2752559 6474 23030 27721 224.5 272.75 194 4.9372601509094 15.285827636719 2277.9757795334 29413.818508977
20253	2759033 6817 22998 27721 224.25 272.75 195 237.17181396484 483.14999389648 86000.122192383 38924484.676989
20252	2765850 6803 22998 27721 224.25 272.75 195 160.43438720703 483.14999389648 76193.452636719 31993220.115378
vector 20378  IntersectionExampleScenario.node[94].veinsmobility  posx  ETV
vector 20379  IntersectionExampleScenario.node[94].veinsmobility  posy  ETV
vector 20380  IntersectionExampleScenario.node[94].veinsmobility  speed  ETV
vector 20381  IntersectionExampleScenario.node[94].veinsmobility  acceleration  ETV
vector 20382  IntersectionExampleScenario.node[94].veinsmobility  co2emission  ETV
vector 20385  IntersectionExampleScenario.node[95].veinsmobility  posx  ETV
vector 20386  IntersectionExampleScenario.node[95].veinsmobility  posy  ETV
vector 20387  IntersectionExampleScenario.node[95].veinsmobility  speed  ETV
vector 20388  IntersectionExampleScenario.node[95].veinsmobility  acceleration  ETV
vector 20389  IntersectionExampleScenario.node[95].veinsmobility  co2emission  ETV
20235	2773455 7131 22467 28145 219.75 276.25 227 0.973 11.648172402475 599.16291266283 2997.4510560468
20234	2780586 6702 22467 28145 219.75 276.25 227 -7.2196097373962 4 38.511121749878 476.56552928579
20233	2787288 6874 22438 28145 219.5 276.25 228 0 15.64999961853 2214.5045019388 31485.391198478
20232	2794162 8016 22408 28145 219.25 276.25 229 486.85000610352 486.85000610352 111488.65139771 54278250.613445
20231	2802178 8001 22408 28145 219.25 276.25 229 236.02325439453 785.82187652588 117704.98679352 64672250.221317
20242	2810179 7496 22674 28291 221.5 277.5 225 0.973 11.648172402475 603.29747238819 2973.1793485817
20241	2817675 7288 22674 28291 221.5 277.5 225 -4.5 2.5000001080334 38.511121749878 439.28034057262
20240	2824963 7653 22643 28291 221.25 277.5 226 0 15.64999961853 2279.8927691188 31858.373977405
20239	2832616 7927 22612 28291 221 277.5 227 237.90533447266 486.85000610352 102199.69549561 47086696.69452
20238	2840543 7922 22612 28291 221 277.5 227 483.13391113281 805.05782318115 126955.93829346 73320496.200432
vector 20392  IntersectionExampleScenario.node[96].veinsmobility  posx  ETV
[...]
23294	18733655 9164 157171 164434 1676.75 1747.5 284 0.973 11.36141391502 641.57919948674 2859.2242238267
23293	18742819 8314 157171 164434 1676.75 1747.5 284 -8.9650955200195 4 37.32285118103 489.42563871643
23292	18751133 8657 157156 164434 1676.5 1747.5 285 0 15.25 2235.6366891861 31080.567017436
23291	18759790 10518 157141 164434 1676.25 1747.5 286 236.31317138672 483.14999389648 129830.07080078 60063424.790731
23290	18770308 10557 157141 164434 1676.25 1747.5 286 169.95465087891 483.36395263672 121535.43240356 54063943.729417
vector 23472  IntersectionExampleScenario.node[536].veinsmobility  posx  ETV
vector 23473  IntersectionExampleScenario.node[536].veinsmobility  posy  ETV
23301	18781021 9116 157310 164608 1679 1749 281 0.973 11.36141391502 692.05926428094 3142.7114060347
23300	18790137 8462 157310 164608 1679 1749 281 -17.400440216064 5.1801471710205 42.245687484741 764.75157287705
23299	18798599 8674 157293 164608 1678.75 1749 282 -1.2950367927551 16.234901428223 2278.4417604953 33288.355379647
23298	18807273 10465 157276 164608 1678.5 1749 283 237.41363525391 483.14999389648 129005.90087891 59852093.854553
23297	18817738 10446 157276 164608 1678.5 1749 283 160.18048095703 483.16278076172 119249.57321167 52768015.148272
vector 23474  IntersectionExampleScenario.node[536].veinsmobility  speed  ETV
vector 23475  IntersectionExampleScenario.node[536].veinsmobility  acceleration  ETV
vector 23476  IntersectionExampleScenario.node[536].veinsmobility  co2emission  ETV
23308	18828434 9539 157553 164918 1682.75 1751.5 276 0.97223939240464 11.648172402475 649.66111872044 3010.3614472824
23307	18837973 9780 157553 164918 1682.75 1751.5 276 -3.9797949790955 2.5000009536743 38.680875778198 355.56254332938
23306	18847753 9882 157536 164918 1682.5 1751.5 277 0 15.64999961853 2282.7979581375 30936.851416626
23305	18857635 10279 157519 164918 1682.25 1751.5 278 483.14999389648 732.6644744873 142646.08529663 74329034.824504
23304	18867914 10261 157519 164918 1682.25 1751.5 278 164.21832275391 487.03784179688 116099.66345215 50879334.072906
23406	18878175 5860 160062 165383 1714.25 1755.25 165 0.973 11.36141391502 557.62571259586 3272.4932345693
23405	18884035 5413 160062 165383 1714.25 1755.25 165 -4.3280410766602 2.5 37.492597579956 367.63159545861
23404	18889448 5811 160023 165383 1714 1755.25 166 5.6500000953674 15.25 2189.6716156006 30126.735136268
23403	18895259 6169 159984 165383 1713.75 1755.25 167 235.39477539062 483.14999389648 72293.555603027 32256074.839985
23402	18901428 6152 159984 165383 1713.75 1755.25 167 184.17810058594 483.14999389648 66418.835998535 28175422.495546
vector 23479  IntersectionExampleScenario.node[537].veinsmobility  posx  ETV
vector 23480  IntersectionExampleScenario.node[537].veinsmobility  posy  ETV
vector 23481  IntersectionExampleScenario.node[537].veinsmobility  speed  ETV
vector 23482  IntersectionExampleScenario.node[537].veinsmobility  acceleration  ETV
vector 23483  IntersectionExampleScenario.node[537].veinsmobility  co2emission  ETV
23413	18907986 5767 160660 165769 1718.5 1758.25 160 0.973 11.450879080643 486.73087345098 2549.1606499469
23412	18913753 5652 160660 165769 1718.5 1758.25 160 -3.4302978515625 2.5 37.15309715271 231.56334948651
23411	18919405 5670 160625 165769 1718.25 1758.25 161 5.6500000953674 15.375 2219.1528844833 31425.834757924
23410	18925075 5985 160589 165769 1718 1758.25 162 483.14999389648 731.87335205078 86745.662734985 47411521.206219
23409	18931060 5973 160589 165769 1718 1758.25 162 179.81719970703 486.87536621094 64174.570709229 27278508.334674
23315	18937033 8700 158210 166099 1694 1761 269 0.973 11.648172402475 644.69156263506 3022.6546913335
23314	18945733 7962 158210 166099 1694 1761 269 -8.013355255127 4 39.529638290405 483.26316794354
23313	18953695 8209 158195 166099 1693.75 1761 270 0 15.64999961853 2176.8972644806 31050.977606885
23312	18961904 9953 158180 166099 1693.5 1761 271 486.85000610352 732.96800231934 139967.02479553 73365002.555301
23311	18971857 10018 158180 166099 1693.5 1761 271 486.63604736328 785.82187652588 146939.07370758 81759056.678973
23385	18981875 6812 159912 166307 1713.25 1763 200 0.973 11.200708441096 537.22140967376 2628.9787870099
23384	18988687 7040 159912 166307 1713.25 1763 200 -2.0688285827637 2.5000009536743 35.795072555542 293.80253662764
23383	18995727 7292 159879 166307 1713 1763 201 1.2129781246185 15.02499961853 2219.2907258272 28814.429142218
23382	19003019 7473 159846 166307 1712.75 1763 202 486.85000610352 486.85000610352 98343.70123291 47878631.545484
23381	19010492 7446 159846 166307 1712.75 1763 202 235.56414794922 785.82187652588 105015.22193146 58901198.988398
vector 23486  IntersectionExampleScenario.node[538].veinsmobility  posx  ETV
vector 23487  IntersectionExampleScenario.node[538].veinsmobility  posy  ETV
vector 23488  IntersectionExampleScenario.node[538].veinsmobility  speed  ETV
vector 23489  IntersectionExampleScenario.node[538].veinsmobility  acceleration  ETV
vector 23490  IntersectionExampleScenario.node[538].veinsmobility  co2emission  ETV
vector 23493  IntersectionExampleScenario.node[539].veinsmobility  posx  ETV
vector 23494  IntersectionExampleScenario.node[539].veinsmobility  posy  ETV
vector 23495  IntersectionExampleScenario.node[539].veinsmobility  speed  ETV
vector 23496  IntersectionExampleScenario.node[539].veinsmobility  acceleration  ETV
vector 23497  IntersectionExampleScenario.node[539].veinsmobility  co2emission  ETV
vector 23500  IntersectionExampleScenario.node[540].veinsmobility  posx  ETV
vector 23501  IntersectionExampleScenario.node[540].veinsmobility  posy  ETV
vector 23502  IntersectionExampleScenario.node[540].veinsmobility  speed  ETV
vector 23503  IntersectionExampleScenario.node[540].veinsmobility  acceleration  ETV
vector 23504  IntersectionExampleScenario.node[540].veinsmobility  co2emission  ETV
vector 23507  IntersectionExampleScenario.node[541].veinsmobility  posx  ETV
vector 23508  IntersectionExampleScenario.node[541].veinsmobility  posy  ETV
23392	19019312 7989 159984 167211 1713.75 1774.5 244 0.973 12.099024792222 637.20364310478 3297.2408650884
23391	19027301 7336 159984 167211 1713.75 1774.5 244 -6.9979004859924 4 41.227170944214 492.65892816269
23390	19034637 7636 159947 167211 1713.5 1774.5 245 0 16.27499961853 2205.6508940458 32465.666131508
23389	19042273 9074 159912 167211 1713.25 1774.5 246 184.17810058594 731.40208435059 112221.23678589 55198534.195962
23388	19051347 9103 159912 167211 1713.25 1774.5 246 486.85000610352 486.85000610352 119765.10150146 58307640.396976
vector 23514  IntersectionExampleScenario.node[542].veinsmobility  posx  ETV
vector 23515  IntersectionExampleScenario.node[542].veinsmobility  posy  ETV
vector 23509  IntersectionExampleScenario.node[541].veinsmobility  speed  ETV
vector 23510  IntersectionExampleScenario.node[541].veinsmobility  acceleration  ETV
vector 23511  IntersectionExampleScenario.node[541].veinsmobility  co2emission  ETV
vector 23516  IntersectionExampleScenario.node[542].veinsmobility  speed  ETV
vector 23517  IntersectionExampleScenario.node[542].veinsmobility  acceleration  ETV
vector 23518  IntersectionExampleScenario.node[542].veinsmobility  co2emission  ETV
23371	19061106 8360 159612 167272 1710.75 1775.25 259 0.973 11.648172402475 628.58559350795 3050.8723076096
23370	19069466 7465 159612 167272 1710.75 1775.25 259 -16.570487976074 4 38.850629806519 726.14209451987
23369	19076931 7874 159583 167272 1710.5 1775.25 260 0 15.74914264679 2085.6503400803 29813.837484742
23368	19084805 9640 159554 167272 1710.25 1775.25 261 483.14999389648 756.11563110352 139392.13159943 76047866.659014
23367	19094445 9651 159554 167272 1710.25 1775.25 261 483.14999389648 734.32060241699 134519.10920715 70467799.102983
23357	19104096 9407 159452 167427 1709.25 1777.25 273 0.973 10.916047529558 639.97437932186 2740.7563597227
23356	19113503 9179 159452 167427 1709.25 1777.25 273 -4.5 2.5 35.795072555542 469.4289569902
23355	19122682 9317 159427 167427 1709 1777.25 274 0 14.903589248657 2177.5958603965 28385.166295739
23354	19131999 10167 159402 167427 1708.75 1777.25 275 486.85000610352 785.82187652588 151729.03479004 86050145.488912
23353	19142166 10174 159402 167427 1708.75 1777.25 275 238.07818603516 483.14999389648 124427.2593689 57415843.21965
23399	19152340 9186 160023 167564 1714 1779.25 262 0.973 11.028063118289 633.07996799109 2563.8212520754
23398	19161526 9107 160023 167564 1714 1779.25 262 -20 4 35.795072555542 849.59090200412
23397	19170633 9311 159984 167564 1713.75 1779.25 263 0 14.782622337341 2301.2030218132 30503.227381342
23396	19179944 9739 159947 167564 1713.5 1779.25 264 159.76721191406 486.85000610352 109295.14810181 47897530.649404
23395	19189683 9760 159947 167564 1713.5 1779.25 264 235.33642578125 486.85000610352 119616.89401245 55384069.893678
vector 23521  IntersectionExampleScenario.node[543].veinsmobility  posx  ETV
vector 23522  IntersectionExampleScenario.node[543].veinsmobility  posy  ETV
23427	19199599 7656 161351 167598 1723.5 1779.75 226 0.973 11.36141391502 579.18106920843 2830.9194078487
23426	19207255 7930 161351 167598 1723.5 1779.75 226 -3.7151339054108 2.5000004768372 37.15309715271 347.85595800425
23425	19215185 8058 161314 167598 1723.25 1779.75 227 0 15.25 2189.8780460432 28124.859357791
23424	19223243 8410 161277 167598 1723 1779.75 228 184.17810058594 483.21258544922 93903.859436035 40572326.919208
23423	19231653 8420 161277 167598 1723 1779.75 228 486.85000610352 734.3236541748 119423.75549316 63626943.306917
vector 23523  IntersectionExampleScenario.node[543].veinsmobility  speed  ETV
vector 23524  IntersectionExampleScenario.node[543].veinsmobility  acceleration  ETV
vector 23525  IntersectionExampleScenario.node[543].veinsmobility  co2emission  ETV
23364	19240323 9799 159583 167650 1710.5 1780.5 281 0.973 11.88132196345 711.19010908533 3219.4761504495
23363	19250122 10267 159583 167650 1710.5 1780.5 281 -4.5 2.5 40.938695907593 594.78933467781
23362	19260389 10332 159554 167650 1710.25 1780.5 282 0 15.973804473877 2273.467069733 30077.356033951
23361	19270721 10447 159527 167650 1710 1780.5 283 486.7975769043 807.09531402588 157456.18437958 90171611.951484
23360	19281168 10461 159527 167650 1710 1780.5 283 235.33880615234 483.14999389648 128286.1769104 59295519.840116
23441	19291629 6876 162308 167735 1730.75 1781.75 205 0.973 11.648172402475 572.58228591007 2886.3416567961
23440	19298505 7651 162308 167735 1730.75 1781.75 205 -2.5275917053223 2.5 39.905973434448 318.55337988511
23439	19306156 7597 162274 167735 1730.5 1781.75 206 1.9709993600845 15.666372299194 2210.4057790041 28543.88562071
23438	19313753 7630 162239 167735 1730.25 1781.75 207 184.17810058594 486.85000610352 84170.498474121 36067304.811495
23437	19321383 7657 162239 167735 1730.25 1781.75 207 236.28491210938 486.85000610352 92468.226318359 42356563.004826
23469	19329040 5396 164257 167871 1746 1783.75 152 0.973 11.990504229548 529.37388231861 3306.2158006679
23468	19334436 5116 164257 167871 1746 1783.75 152 -3.0180320739746 2.5 39.869146347046 260.47362007041
23467	19339552 5408 164226 167871 1745.75 1783.75 153 5.6500000953674 16.125 2220.6805686951 32940.930803305
23466	19344960 5664 164195 167871 1745.5 1783.75 154 184.17810058594 734.01020812988 68987.758026123 34993238.599218
23465	19350624 5699 164195 167871 1745.5 1783.75 154 486.85000610352 486.85000610352 74974.900939941 36501530.980221
23378	19356323 9988 159879 167956 1713 1785 289 0.973 11.36141391502 675.43388970724 2911.7266121407
23377	19366311 10385 159879 167956 1713 1785 289 -22.584526062012 4 35.964826583862 986.3266442691
23376	19376696 10331 159846 167956 1712.75 1785 290 0 15.25 2283.8926302399 28671.747962264
23375	19387027 10751 159815 167956 1712.5 1785 291 486.73400878906 812.96804046631 162778.24880981 93603574.352278
23374	19397778 10760 159815 167956 1712.5 1785 291 238.11889648438 483.14999389648 132193.75616455 61180385.4054
vector 23528  IntersectionExampleScenario.node[544].veinsmobility  posx  ETV
vector 23529  IntersectionExampleScenario.node[544].veinsmobility  posy  ETV
vector 23530  IntersectionExampleScenario.node[544].veinsmobility  speed  ETV
vector 23531  IntersectionExampleScenario.node[544].veinsmobility  acceleration  ETV
vector 23532  IntersectionExampleScenario.node[544].veinsmobility  co2emission  ETV
23455	19408944 7272 162804 168132 1734.5 1787.5 213 0.96997852711604 12.44402232946 611.94900646451 3231.730856595
23454	19416216 7369 162804 168132 1734.5 1787.5 213 -4.5 2.5 42.585195541382 474.85898667904
23453	19423585 7670 162769 168132 1734.25 1787.5 214 0 16.75 2216.3393146116 30488.386205648
23452	19431255 7931 162734 168132 1734 1787.5 215 237.33898925781 785.82187652588 113184.87007904 63575778.852788
23451	19439186 7954 162734 168132 1734 1787.5 215 483.14999389648 483.14999389648 103877.24868774 50188292.069467
23434	19447140 7949 162107 168151 1729.25 1787.75 235 0.973 11.200708441096 585.81071860648 2744.0714466285
23433	19455089 8415 162107 168151 1729.25 1787.75 235 -4.5 2.5 35.964826583862 433.44473382732
23432	19463504 8449 162074 168151 1729 1787.75 236 0 15.168348312378 2187.2281943746 27035.178409042
23431	19471953 8760 162041 168151 1728.75 1787.75 237 486.85000610352 785.82187652588 132635.55040741 76120325.216516
23430	19480713 8761 162041 168151 1728.75 1787.75 237 235.95056152344 483.14999389648 105947.68704224 48461025.569049
23420	19489474 8926 161172 168427 1722.25 1791.5 278 0.973 12.26218747632 684.32261777255 3374.3738534626
23419	19498400 8260 161172 168427 1722.25 1791.5 278 -10.263336181641 4 41.396924972534 597.71009606673
23418	19506660 8353 161137 168427 1722 1791.5 279 0 16.5 2212.1268310547 32526.550158983
23417	19515013 10279 161102 168427 1721.75 1791.5 280 238.51751708984 483.14999389648 127571.02774048 59162331.619402
23416	19525292 10334 161102 168427 1721.75 1791.5 280 174.03668212891 483.36395263672 119490.53829956 53282238.753261
23448	19535626 8171 162734 168554 1734 1793.5 239 0.973 11.648172402475 599.99464966644 2935.4712853955
23447	19543797 8457 162734 168554 1734 1793.5 239 -3.9498529434204 2.5 38.511121749878 343.84914971324
23446	19552254 8646 162701 168554 1733.75 1793.5 240 0 15.64999961853 2203.5884074308 29255.728902477
23445	19560900 8910 162668 168554 1733.5 1793.5 241 483.14999389648 732.18298339844 124760.56196594 65679080.399811
23444	19569810 8880 162668 168554 1733.5 1793.5 241 184.17810058594 486.86721801758 100754.61639404 44099072.555152
23462	19578690 7189 163892 168712 1743 1796.25 214 0.973 11.810082123732 581.03215526602 3059.6725431472
23461	19585879 7375 163892 168712 1743 1796.25 214 -3.9934618473053 2.5000000596046 39.529638290405 382.91929374945
23460	19593254 7591 163861 168712 1742.75 1796.25 215 0 15.875 2187.5522184372 28607.542121784
23459	19600845 7990 163830 168712 1742.5 1796.25 216 236.03015136719 483.14999389648 96268.064758301 43930132.995497
23458	19608835 7968 163830 168712 1742.5 1796.25 216 184.17810058594 483.14999389648 88388.139770508 38010122.700654
23476	19616803 6172 164670 168880 1749.5 1800 203 0.973 11.200708441096 396.78137266536 1754.1549191877
23475	19622975 5737 164670 168880 1749.5 1800 203 -27.741607666016 2.5 -22.60000038147 1017.3933775097
23474	19628712 5976 164639 168880 1749.25 1800 204 0 15.02499961853 1148.7253665924 14833.489588229
23473	19634688 7576 164608 168880 1749 1800 205 498.39999389648 785.82187652588 115599.27352142 66994131.422927
23472	19642264 7583 164608 168880 1749 1800 205 483.14999389648 483.14999389648 99045.748748779 47853952.903445
23483	19649847 5859 165604 168880 1757 1800 173 0.973 11.90022389248 526.04140350121 2960.4525054731
23482	19655706 5498 165604 168880 1757 1800 173 -7.2641291618347 4 39.699789047241 485.24806200861
23481	19661204 5689 165571 168880 1756.75 1800 174 0 16 1830.4781397581 25893.147209894
23480	19666893 6474 165538 168880 1756.5 1800 175 329.80462646484 486.85000610352 81876.907562256 38589585.95668
23479	19673367 6468 165538 168880 1756.5 1800 175 483.14999389648 785.82187652588 99192.908576965 58010361.124701
23490	19679835 4780 166484 168880 1765 1800 141 0.973 11.810082123732 475.11654019468 2949.6162573014
23489	19684615 4821 166484 168880 1765 1800 141 -2.726806640625 2.5 39.879468917847 329.82613471028
23488	19689436 4920 166461 168880 1764.75 1800 142 4.3168754577637 15.875 1646.3561725616 21329.982110027
23487	19694356 5289 166438 168880 1764.5 1800 143 486.85000610352 598.41784667969 71379.096557617 35734476.683889
23486	19699645 5282 166438 168880 1764.5 1800 143 486.82180786133 785.82187652588 84163.182304382 51000440.426149
23497	19704927 4225 166849 168880 1769.5 1800 123 0.973 11.36141391502 429.4286281633 2738.9747180357
23496	19709152 4139 166849 168880 1769.5 1800 123 -3.6754531860352 2.5 37.31951713562 331.94995098868
23495	19713291 4268 166830 168880 1769.25 1800 124 5.6500000953674 15.25 1455.2333922386 18240.520781756
23494	19717559 4623 166811 168880 1769 1800 125 486.85000610352 551.20718383789 61543.515075684 30324822.69437
23493	19722182 4614 166811 168880 1769 1800 125 486.81594848633 785.82187652588 75548.357261658 46946582.327756
23504	19726796 4017 166998 168880 1771.5 1800 115 0.973 11.990504229548 430.43134021186 2704.9306821909
23503	19730813 3808 166998 168880 1771.5 1800 115 -4.5 2.5 41.64577293396 270.05028700561
23502	19734621 4053 166979 168880 1771.25 1800 116 5.6500000953674 16.125 1533.7987089157 21017.982988289
23501	19738674 4327 166960 168880 1771 1800 117 486.85000610352 486.85000610352 56961.450714111 27731682.62783
23500	19743001 4313 166960 168880 1771 1800 117 426.38125610352 803.92188262939 72087.384216309 45931871.05091
23511	19747314 3329 167251 168880 1775 1800 101 0.973 10.756497587458 245.73639736309 1159.6139897887
23510	19750643 3640 167251 168880 1775 1800 101 -2.0640029907227 2.5 -12.471273422241 152.81214104411
23509	19754283 3756 167230 168880 1774.75 1800 102 2.5321817398071 14.39999961853 1091.1293478012 13403.589461469
23508	19758039 3804 167211 168880 1774.5 1800 103 513.68417358398 785.82187652588 65283.206924438 42224376.843286
23507	19761843 3810 167211 168880 1774.5 1800 103 483.14999389648 483.14999389648 49764.449371338 24043693.410024
23518	19765653 3440 167272 168880 1775.25 1800 100 0.973 11.648172402475 291.45729977734 1594.061863938
23517	19769093 3521 167272 168880 1775.25 1800 100 -3.7266654968262 2.5 6.3999996185303 201.81460799725
23516	19772614 3548 167251 168880 1775 1800 101 5.6500000953674 15.64999961853 1295.6728897095 17586.393786803
23515	19776162 3771 167230 168880 1774.75 1800 102 486.85000610352 497.22305297852 49701.424560547 24218228.280173
23514	19779933 3764 167230 168880 1774.75 1800 102 486.83520507812 802.83283233643 65155.013885498 42704707.088382
23525	19783697 2834 167633 168880 1780.25 1800 80 0.973 11.648172402475 259.75990246508 1449.5584250429
23524	19786531 2713 167633 168880 1780.25 1800 80 -3.1266460418701 2.5 4.9835777282715 200.64473521167
23523	19789244 2980 167616 168880 1780 1800 81 5.6500000953674 15.64999961853 1122.9781918526 16231.810690695
23522	19792224 3007 167598 168880 1779.75 1800 82 184.17810058594 462.77673339844 26010.541015625 8890664.1642783
23521	19795231 3033 167598 168880 1779.75 1800 82 486.85000610352 486.85000610352 39921.700500488 19435880.132325
23532	19798264 1897 168113 168880 1787.25 1800 52 0.973 11.648172402475 205.66688305361 1334.5574033791
23531	19800161 1883 168113 168880 1787.25 1800 52 -0.49953460693359 2.5 38.001920700073 100.57035722217
23530	19802044 1944 168094 168880 1787 1800 53 5.6500000953674 15.64999961853 727.96526908875 10396.602409946
23529	19803988 1997 168075 168880 1786.75 1800 54 486.85000610352 486.85000610352 26289.90032959 12799238.135922
23528	19805985 1995 168075 168880 1786.75 1800 54 608.91995239258 785.82187652588 38166.068000793 27141136.579947
19716	19807980 637 0 168879 0 1800 31 0 24 468 7756
19717	19808617 652 0 168879 0 1800 31 0 184 2984 381404
