version 2
run nodebug-8-20200605-21:21:18-20324
attr configname nodebug
attr datetime 20200605-21:21:18
attr experiment nodebug
attr inifile omnetpp.ini
attr iterationvars ""
attr iterationvars2 $repetition=8
attr measurement ""
attr network "\"org.car2x.veins.modules.application.ExtTraCIScenarioManagerLaunchd.IntersectionExampleScenario\""
attr processid 20324
attr repetition 8
attr replication #8
attr resultdir results
attr runnumber 8
attr seedset 8
param **.coreDebug false
param **.debug false
param *.**.nic.mac1609_4.bitrate 18Mbps
param *.**.nic.mac1609_4.txPower 20mW
param *.**.nic.mac1609_4.useServiceChannel false
param *.**.nic.phy80211p.analogueModels "xmldoc(\"config.xml\")"
param *.**.nic.phy80211p.decider "xmldoc(\"config.xml\")"
param *.**.nic.phy80211p.sensitivity -89dBm
param *.**.nic.phy80211p.thermalNoise -110dBm
param *.**.nic.phy80211p.usePropagationDelay true
param *.**.nic.phy80211p.useThermalNoise true
param *.annotations.draw false
param *.connectionManager.alpha 2.0
param *.connectionManager.carrierFrequency "5.890e9 Hz"
param *.connectionManager.pMax 20mW
param *.connectionManager.sat -89dBm
param *.connectionManager.sendDirect true
param *.manager.autoShutdown true
param *.manager.host "\"localhost\""
param *.manager.launchConfig "xmldoc(\"paramics.launchd.xml\")"
param *.manager.margin 25
param *.manager.moduleDisplayString "\"\""
param *.manager.moduleName "\"node\""
param *.manager.moduleType "\"org.car2x.veins.nodes.Car\""
param *.manager.port 9999
param *.manager.updateInterval 250ms
param *.node[*0].veinsmobility.accidentCount 0
param *.node[*0].veinsmobility.accidentDuration 30s
param *.node[*0].veinsmobility.accidentStart 75s
param *.node[*].appl.LiderSelectZoneRadio 55.0
param *.node[*].appl.ShareDataZoneRadio 110.0
param *.node[*].appl.TiempoSemaforo 30.0
param *.node[*].appl.beaconInterval 1s
param *.node[*].appl.beaconPriority 3
param *.node[*].appl.dataOnSch false
param *.node[*].appl.dataPriority 2
param *.node[*].appl.debug false
param *.node[*].appl.headerLength "256 bit"
param *.node[*].appl.maxOffset 0.005s
param *.node[*].appl.sendBeacons false
param *.node[*].appl.sendData true
param *.node[*].applType "\"Dummy\""
param *.node[*].mobilityType "\"TraCIMobility\""
param *.node[*].mobilityType.debug true
param *.node[*].veinsmobility.x 0
param *.node[*].veinsmobility.y 0
param *.node[*].veinsmobility.z 1.895
param *.node[*].veinsmobilityType "\"org.car2x.veins.modules.mobility.traci.TraCIMobility\""
param *.node[*].veinsmobilityType.debug true
param *.playgroundSizeX 8500m
param *.playgroundSizeY 8500m
param *.playgroundSizeZ 50m
param *.world.use2D false
param *.world.useTorus false

scalar IntersectionExampleScenario.node[2].appl 	VehicleRemoved 	0
scalar IntersectionExampleScenario.node[2].appl 	ArrivedAtDest 	1
scalar IntersectionExampleScenario.node[2].appl 	IntersectionEnterTime 	23.25
scalar IntersectionExampleScenario.node[2].appl 	IntersectionExitTime 	46.817923251976
scalar IntersectionExampleScenario.node[2].appl 	NumberOfCollisions 	0
scalar IntersectionExampleScenario.node[2].nic.phy80211p 	busyTime 	0
scalar IntersectionExampleScenario.node[2].nic.mac1609_4 	ReceivedUnicastPackets 	0
scalar IntersectionExampleScenario.node[2].nic.mac1609_4 	ReceivedBroadcasts 	0
scalar IntersectionExampleScenario.node[2].nic.mac1609_4 	SentPackets 	0
scalar IntersectionExampleScenario.node[2].nic.mac1609_4 	SNIRLostPackets 	0
scalar IntersectionExampleScenario.node[2].nic.mac1609_4 	RXTXLostPackets 	0
scalar IntersectionExampleScenario.node[2].nic.mac1609_4 	TotalLostPackets 	0
scalar IntersectionExampleScenario.node[2].nic.mac1609_4 	DroppedPacketsInMac 	0
scalar IntersectionExampleScenario.node[2].nic.mac1609_4 	TooLittleTime 	0
scalar IntersectionExampleScenario.node[2].nic.mac1609_4 	TimesIntoBackoff 	0
scalar IntersectionExampleScenario.node[2].nic.mac1609_4 	SlotsBackoff 	0
scalar IntersectionExampleScenario.node[2].nic.mac1609_4 	NumInternalContention 	0
scalar IntersectionExampleScenario.node[2].nic.mac1609_4 	totalBusyTime 	0
scalar IntersectionExampleScenario.node[2].veinsmobility 	startTime 	23.25
scalar IntersectionExampleScenario.node[2].veinsmobility 	totalTime 	40
scalar IntersectionExampleScenario.node[2].veinsmobility 	stopTime 	63.5
scalar IntersectionExampleScenario.node[2].veinsmobility 	minSpeed 	5.6500000953674
scalar IntersectionExampleScenario.node[2].veinsmobility 	maxSpeed 	15.875
scalar IntersectionExampleScenario.node[2].veinsmobility 	totalDistance 	543.80742207355
scalar IntersectionExampleScenario.node[2].veinsmobility 	totalCO2Emission 	126.97611641012
scalar IntersectionExampleScenario.node[0].appl 	VehicleRemoved 	0
scalar IntersectionExampleScenario.node[0].appl 	ArrivedAtDest 	1
scalar IntersectionExampleScenario.node[0].appl 	IntersectionEnterTime 	7.75
scalar IntersectionExampleScenario.node[0].appl 	IntersectionExitTime 	48.566356960917
scalar IntersectionExampleScenario.node[0].appl 	NumberOfCollisions 	0
scalar IntersectionExampleScenario.node[0].nic.phy80211p 	busyTime 	0
scalar IntersectionExampleScenario.node[0].nic.mac1609_4 	ReceivedUnicastPackets 	0
scalar IntersectionExampleScenario.node[0].nic.mac1609_4 	ReceivedBroadcasts 	0
scalar IntersectionExampleScenario.node[0].nic.mac1609_4 	SentPackets 	0
scalar IntersectionExampleScenario.node[0].nic.mac1609_4 	SNIRLostPackets 	0
scalar IntersectionExampleScenario.node[0].nic.mac1609_4 	RXTXLostPackets 	0
scalar IntersectionExampleScenario.node[0].nic.mac1609_4 	TotalLostPackets 	0
scalar IntersectionExampleScenario.node[0].nic.mac1609_4 	DroppedPacketsInMac 	0
scalar IntersectionExampleScenario.node[0].nic.mac1609_4 	TooLittleTime 	0
scalar IntersectionExampleScenario.node[0].nic.mac1609_4 	TimesIntoBackoff 	0
scalar IntersectionExampleScenario.node[0].nic.mac1609_4 	SlotsBackoff 	0
scalar IntersectionExampleScenario.node[0].nic.mac1609_4 	NumInternalContention 	0
scalar IntersectionExampleScenario.node[0].nic.mac1609_4 	totalBusyTime 	0
scalar IntersectionExampleScenario.node[0].veinsmobility 	startTime 	7.75
scalar IntersectionExampleScenario.node[0].veinsmobility 	totalTime 	56.75
scalar IntersectionExampleScenario.node[0].veinsmobility 	stopTime 	64.75
scalar IntersectionExampleScenario.node[0].veinsmobility 	minSpeed 	0
scalar IntersectionExampleScenario.node[0].veinsmobility 	maxSpeed 	16.5
scalar IntersectionExampleScenario.node[0].veinsmobility 	totalDistance 	545.89437772185
scalar IntersectionExampleScenario.node[0].veinsmobility 	totalCO2Emission 	156.96507831638
scalar IntersectionExampleScenario.node[1].appl 	VehicleRemoved 	0
scalar IntersectionExampleScenario.node[1].appl 	ArrivedAtDest 	1
scalar IntersectionExampleScenario.node[1].appl 	IntersectionEnterTime 	22.25
scalar IntersectionExampleScenario.node[1].appl 	IntersectionExitTime 	51.050293920125
scalar IntersectionExampleScenario.node[1].appl 	NumberOfCollisions 	0
scalar IntersectionExampleScenario.node[1].nic.phy80211p 	busyTime 	0
scalar IntersectionExampleScenario.node[1].nic.mac1609_4 	ReceivedUnicastPackets 	0
scalar IntersectionExampleScenario.node[1].nic.mac1609_4 	ReceivedBroadcasts 	0
scalar IntersectionExampleScenario.node[1].nic.mac1609_4 	SentPackets 	0
scalar IntersectionExampleScenario.node[1].nic.mac1609_4 	SNIRLostPackets 	0
scalar IntersectionExampleScenario.node[1].nic.mac1609_4 	RXTXLostPackets 	0
scalar IntersectionExampleScenario.node[1].nic.mac1609_4 	TotalLostPackets 	0
scalar IntersectionExampleScenario.node[1].nic.mac1609_4 	DroppedPacketsInMac 	0
scalar IntersectionExampleScenario.node[1].nic.mac1609_4 	TooLittleTime 	0
scalar IntersectionExampleScenario.node[1].nic.mac1609_4 	TimesIntoBackoff 	0
scalar IntersectionExampleScenario.node[1].nic.mac1609_4 	SlotsBackoff 	0
scalar IntersectionExampleScenario.node[1].nic.mac1609_4 	NumInternalContention 	0
scalar IntersectionExampleScenario.node[1].nic.mac1609_4 	totalBusyTime 	0
scalar IntersectionExampleScenario.node[1].veinsmobility 	startTime 	22.25
scalar IntersectionExampleScenario.node[1].veinsmobility 	totalTime 	44.25
scalar IntersectionExampleScenario.node[1].veinsmobility 	stopTime 	66.75
scalar IntersectionExampleScenario.node[1].veinsmobility 	minSpeed 	3.1200306415558
scalar IntersectionExampleScenario.node[1].veinsmobility 	maxSpeed 	16.89999961853
scalar IntersectionExampleScenario.node[1].veinsmobility 	totalDistance 	543.50326026784
scalar IntersectionExampleScenario.node[1].veinsmobility 	totalCO2Emission 	143.44448778663
scalar IntersectionExampleScenario.node[5].appl 	VehicleRemoved 	0
scalar IntersectionExampleScenario.node[5].appl 	ArrivedAtDest 	1
scalar IntersectionExampleScenario.node[5].appl 	IntersectionEnterTime 	25.75
scalar IntersectionExampleScenario.node[5].appl 	IntersectionExitTime 	53.540266349388
scalar IntersectionExampleScenario.node[5].appl 	NumberOfCollisions 	0
scalar IntersectionExampleScenario.node[5].nic.phy80211p 	busyTime 	0
scalar IntersectionExampleScenario.node[5].nic.mac1609_4 	ReceivedUnicastPackets 	0
scalar IntersectionExampleScenario.node[5].nic.mac1609_4 	ReceivedBroadcasts 	0
scalar IntersectionExampleScenario.node[5].nic.mac1609_4 	SentPackets 	0
scalar IntersectionExampleScenario.node[5].nic.mac1609_4 	SNIRLostPackets 	0
scalar IntersectionExampleScenario.node[5].nic.mac1609_4 	RXTXLostPackets 	0
scalar IntersectionExampleScenario.node[5].nic.mac1609_4 	TotalLostPackets 	0
scalar IntersectionExampleScenario.node[5].nic.mac1609_4 	DroppedPacketsInMac 	0
scalar IntersectionExampleScenario.node[5].nic.mac1609_4 	TooLittleTime 	0
scalar IntersectionExampleScenario.node[5].nic.mac1609_4 	TimesIntoBackoff 	0
scalar IntersectionExampleScenario.node[5].nic.mac1609_4 	SlotsBackoff 	0
scalar IntersectionExampleScenario.node[5].nic.mac1609_4 	NumInternalContention 	0
scalar IntersectionExampleScenario.node[5].nic.mac1609_4 	totalBusyTime 	0
scalar IntersectionExampleScenario.node[5].veinsmobility 	startTime 	25.75
scalar IntersectionExampleScenario.node[5].veinsmobility 	totalTime 	43.5
scalar IntersectionExampleScenario.node[5].veinsmobility 	stopTime 	69.5
scalar IntersectionExampleScenario.node[5].veinsmobility 	minSpeed 	4.8039770126343
scalar IntersectionExampleScenario.node[5].veinsmobility 	maxSpeed 	16.27499961853
scalar IntersectionExampleScenario.node[5].veinsmobility 	totalDistance 	559.92789981386
scalar IntersectionExampleScenario.node[5].veinsmobility 	totalCO2Emission 	144.13877174954
scalar IntersectionExampleScenario.node[6].appl 	VehicleRemoved 	0
scalar IntersectionExampleScenario.node[6].appl 	ArrivedAtDest 	1
scalar IntersectionExampleScenario.node[6].appl 	IntersectionEnterTime 	32.25
scalar IntersectionExampleScenario.node[6].appl 	IntersectionExitTime 	67.612018125772
scalar IntersectionExampleScenario.node[6].appl 	NumberOfCollisions 	0
scalar IntersectionExampleScenario.node[6].nic.phy80211p 	busyTime 	0
scalar IntersectionExampleScenario.node[6].nic.mac1609_4 	ReceivedUnicastPackets 	0
scalar IntersectionExampleScenario.node[6].nic.mac1609_4 	ReceivedBroadcasts 	0
scalar IntersectionExampleScenario.node[6].nic.mac1609_4 	SentPackets 	0
scalar IntersectionExampleScenario.node[6].nic.mac1609_4 	SNIRLostPackets 	0
scalar IntersectionExampleScenario.node[6].nic.mac1609_4 	RXTXLostPackets 	0
scalar IntersectionExampleScenario.node[6].nic.mac1609_4 	TotalLostPackets 	0
scalar IntersectionExampleScenario.node[6].nic.mac1609_4 	DroppedPacketsInMac 	0
scalar IntersectionExampleScenario.node[6].nic.mac1609_4 	TooLittleTime 	0
scalar IntersectionExampleScenario.node[6].nic.mac1609_4 	TimesIntoBackoff 	0
scalar IntersectionExampleScenario.node[6].nic.mac1609_4 	SlotsBackoff 	0
scalar IntersectionExampleScenario.node[6].nic.mac1609_4 	NumInternalContention 	0
scalar IntersectionExampleScenario.node[6].nic.mac1609_4 	totalBusyTime 	0
scalar IntersectionExampleScenario.node[6].veinsmobility 	startTime 	32.25
scalar IntersectionExampleScenario.node[6].veinsmobility 	totalTime 	50.75
scalar IntersectionExampleScenario.node[6].veinsmobility 	stopTime 	83.25
scalar IntersectionExampleScenario.node[6].veinsmobility 	minSpeed 	0
scalar IntersectionExampleScenario.node[6].veinsmobility 	maxSpeed 	16.125
scalar IntersectionExampleScenario.node[6].veinsmobility 	totalDistance 	552.07620239258
scalar IntersectionExampleScenario.node[6].veinsmobility 	totalCO2Emission 	141.4336135155
scalar IntersectionExampleScenario.node[3].appl 	VehicleRemoved 	0
scalar IntersectionExampleScenario.node[3].appl 	ArrivedAtDest 	1
scalar IntersectionExampleScenario.node[3].appl 	IntersectionEnterTime 	23.75
scalar IntersectionExampleScenario.node[3].appl 	IntersectionExitTime 	65.553261471679
scalar IntersectionExampleScenario.node[3].appl 	NumberOfCollisions 	0
scalar IntersectionExampleScenario.node[3].nic.phy80211p 	busyTime 	0
scalar IntersectionExampleScenario.node[3].nic.mac1609_4 	ReceivedUnicastPackets 	0
scalar IntersectionExampleScenario.node[3].nic.mac1609_4 	ReceivedBroadcasts 	0
scalar IntersectionExampleScenario.node[3].nic.mac1609_4 	SentPackets 	0
scalar IntersectionExampleScenario.node[3].nic.mac1609_4 	SNIRLostPackets 	0
scalar IntersectionExampleScenario.node[3].nic.mac1609_4 	RXTXLostPackets 	0
scalar IntersectionExampleScenario.node[3].nic.mac1609_4 	TotalLostPackets 	0
scalar IntersectionExampleScenario.node[3].nic.mac1609_4 	DroppedPacketsInMac 	0
scalar IntersectionExampleScenario.node[3].nic.mac1609_4 	TooLittleTime 	0
scalar IntersectionExampleScenario.node[3].nic.mac1609_4 	TimesIntoBackoff 	0
scalar IntersectionExampleScenario.node[3].nic.mac1609_4 	SlotsBackoff 	0
scalar IntersectionExampleScenario.node[3].nic.mac1609_4 	NumInternalContention 	0
scalar IntersectionExampleScenario.node[3].nic.mac1609_4 	totalBusyTime 	0
scalar IntersectionExampleScenario.node[3].veinsmobility 	startTime 	23.75
scalar IntersectionExampleScenario.node[3].veinsmobility 	totalTime 	59.25
scalar IntersectionExampleScenario.node[3].veinsmobility 	stopTime 	83.25
scalar IntersectionExampleScenario.node[3].veinsmobility 	minSpeed 	0
scalar IntersectionExampleScenario.node[3].veinsmobility 	maxSpeed 	14.625
scalar IntersectionExampleScenario.node[3].veinsmobility 	totalDistance 	543.360404028
scalar IntersectionExampleScenario.node[3].veinsmobility 	totalCO2Emission 	143.74023046212
scalar IntersectionExampleScenario.node[10].appl 	VehicleRemoved 	0
scalar IntersectionExampleScenario.node[10].appl 	ArrivedAtDest 	1
scalar IntersectionExampleScenario.node[10].appl 	IntersectionEnterTime 	49
scalar IntersectionExampleScenario.node[10].appl 	IntersectionExitTime 	71.335867562972
scalar IntersectionExampleScenario.node[10].appl 	NumberOfCollisions 	0
scalar IntersectionExampleScenario.node[10].nic.phy80211p 	busyTime 	0
scalar IntersectionExampleScenario.node[10].nic.mac1609_4 	ReceivedUnicastPackets 	0
scalar IntersectionExampleScenario.node[10].nic.mac1609_4 	ReceivedBroadcasts 	0
scalar IntersectionExampleScenario.node[10].nic.mac1609_4 	SentPackets 	0
scalar IntersectionExampleScenario.node[10].nic.mac1609_4 	SNIRLostPackets 	0
scalar IntersectionExampleScenario.node[10].nic.mac1609_4 	RXTXLostPackets 	0
scalar IntersectionExampleScenario.node[10].nic.mac1609_4 	TotalLostPackets 	0
scalar IntersectionExampleScenario.node[10].nic.mac1609_4 	DroppedPacketsInMac 	0
scalar IntersectionExampleScenario.node[10].nic.mac1609_4 	TooLittleTime 	0
scalar IntersectionExampleScenario.node[10].nic.mac1609_4 	TimesIntoBackoff 	0
scalar IntersectionExampleScenario.node[10].nic.mac1609_4 	SlotsBackoff 	0
scalar IntersectionExampleScenario.node[10].nic.mac1609_4 	NumInternalContention 	0
scalar IntersectionExampleScenario.node[10].nic.mac1609_4 	totalBusyTime 	0
scalar IntersectionExampleScenario.node[10].veinsmobility 	startTime 	49
scalar IntersectionExampleScenario.node[10].veinsmobility 	totalTime 	37.5
scalar IntersectionExampleScenario.node[10].veinsmobility 	stopTime 	86.75
scalar IntersectionExampleScenario.node[10].veinsmobility 	minSpeed 	5.6500000953674
scalar IntersectionExampleScenario.node[10].veinsmobility 	maxSpeed 	16.668169021606
scalar IntersectionExampleScenario.node[10].veinsmobility 	totalDistance 	554.38536071777
scalar IntersectionExampleScenario.node[10].veinsmobility 	totalCO2Emission 	129.6085569792
scalar IntersectionExampleScenario.node[13].appl 	VehicleRemoved 	0
scalar IntersectionExampleScenario.node[13].appl 	ArrivedAtDest 	1
scalar IntersectionExampleScenario.node[13].appl 	IntersectionEnterTime 	52.25
scalar IntersectionExampleScenario.node[13].appl 	IntersectionExitTime 	75.590333465196
scalar IntersectionExampleScenario.node[13].appl 	NumberOfCollisions 	0
scalar IntersectionExampleScenario.node[13].nic.phy80211p 	busyTime 	0
scalar IntersectionExampleScenario.node[13].nic.mac1609_4 	ReceivedUnicastPackets 	0
scalar IntersectionExampleScenario.node[13].nic.mac1609_4 	ReceivedBroadcasts 	0
scalar IntersectionExampleScenario.node[13].nic.mac1609_4 	SentPackets 	0
scalar IntersectionExampleScenario.node[13].nic.mac1609_4 	SNIRLostPackets 	0
scalar IntersectionExampleScenario.node[13].nic.mac1609_4 	RXTXLostPackets 	0
scalar IntersectionExampleScenario.node[13].nic.mac1609_4 	TotalLostPackets 	0
scalar IntersectionExampleScenario.node[13].nic.mac1609_4 	DroppedPacketsInMac 	0
scalar IntersectionExampleScenario.node[13].nic.mac1609_4 	TooLittleTime 	0
scalar IntersectionExampleScenario.node[13].nic.mac1609_4 	TimesIntoBackoff 	0
scalar IntersectionExampleScenario.node[13].nic.mac1609_4 	SlotsBackoff 	0
scalar IntersectionExampleScenario.node[13].nic.mac1609_4 	NumInternalContention 	0
scalar IntersectionExampleScenario.node[13].nic.mac1609_4 	totalBusyTime 	0
scalar IntersectionExampleScenario.node[13].veinsmobility 	startTime 	52.25
scalar IntersectionExampleScenario.node[13].veinsmobility 	totalTime 	38.75
scalar IntersectionExampleScenario.node[13].veinsmobility 	stopTime 	91.25
scalar IntersectionExampleScenario.node[13].veinsmobility 	minSpeed 	5.6500000953674
scalar IntersectionExampleScenario.node[13].veinsmobility 	maxSpeed 	16.625
scalar IntersectionExampleScenario.node[13].veinsmobility 	totalDistance 	560.4698523572
scalar IntersectionExampleScenario.node[13].veinsmobility 	totalCO2Emission 	129.53333445642
scalar IntersectionExampleScenario.node[4].appl 	VehicleRemoved 	0
scalar IntersectionExampleScenario.node[4].appl 	ArrivedAtDest 	1
scalar IntersectionExampleScenario.node[4].appl 	IntersectionEnterTime 	24.25
scalar IntersectionExampleScenario.node[4].appl 	IntersectionExitTime 	80.277350132645
scalar IntersectionExampleScenario.node[4].appl 	NumberOfCollisions 	0
scalar IntersectionExampleScenario.node[4].nic.phy80211p 	busyTime 	0
scalar IntersectionExampleScenario.node[4].nic.mac1609_4 	ReceivedUnicastPackets 	0
scalar IntersectionExampleScenario.node[4].nic.mac1609_4 	ReceivedBroadcasts 	0
scalar IntersectionExampleScenario.node[4].nic.mac1609_4 	SentPackets 	0
scalar IntersectionExampleScenario.node[4].nic.mac1609_4 	SNIRLostPackets 	0
scalar IntersectionExampleScenario.node[4].nic.mac1609_4 	RXTXLostPackets 	0
scalar IntersectionExampleScenario.node[4].nic.mac1609_4 	TotalLostPackets 	0
scalar IntersectionExampleScenario.node[4].nic.mac1609_4 	DroppedPacketsInMac 	0
scalar IntersectionExampleScenario.node[4].nic.mac1609_4 	TooLittleTime 	0
scalar IntersectionExampleScenario.node[4].nic.mac1609_4 	TimesIntoBackoff 	0
scalar IntersectionExampleScenario.node[4].nic.mac1609_4 	SlotsBackoff 	0
scalar IntersectionExampleScenario.node[4].nic.mac1609_4 	NumInternalContention 	0
scalar IntersectionExampleScenario.node[4].nic.mac1609_4 	totalBusyTime 	0
scalar IntersectionExampleScenario.node[4].veinsmobility 	startTime 	24.25
scalar IntersectionExampleScenario.node[4].veinsmobility 	totalTime 	71.25
scalar IntersectionExampleScenario.node[4].veinsmobility 	stopTime 	95.75
scalar IntersectionExampleScenario.node[4].veinsmobility 	minSpeed 	0
scalar IntersectionExampleScenario.node[4].veinsmobility 	maxSpeed 	16.062440872192
scalar IntersectionExampleScenario.node[4].veinsmobility 	totalDistance 	573.91551971436
scalar IntersectionExampleScenario.node[4].veinsmobility 	totalCO2Emission 	177.82029537054
scalar IntersectionExampleScenario.node[11].appl 	VehicleRemoved 	0
scalar IntersectionExampleScenario.node[11].appl 	ArrivedAtDest 	1
scalar IntersectionExampleScenario.node[11].appl 	IntersectionEnterTime 	49.75
scalar IntersectionExampleScenario.node[11].appl 	IntersectionExitTime 	81.321241949685
scalar IntersectionExampleScenario.node[11].appl 	NumberOfCollisions 	0
scalar IntersectionExampleScenario.node[11].nic.phy80211p 	busyTime 	0
scalar IntersectionExampleScenario.node[11].nic.mac1609_4 	ReceivedUnicastPackets 	0
scalar IntersectionExampleScenario.node[11].nic.mac1609_4 	ReceivedBroadcasts 	0
scalar IntersectionExampleScenario.node[11].nic.mac1609_4 	SentPackets 	0
scalar IntersectionExampleScenario.node[11].nic.mac1609_4 	SNIRLostPackets 	0
scalar IntersectionExampleScenario.node[11].nic.mac1609_4 	RXTXLostPackets 	0
scalar IntersectionExampleScenario.node[11].nic.mac1609_4 	TotalLostPackets 	0
scalar IntersectionExampleScenario.node[11].nic.mac1609_4 	DroppedPacketsInMac 	0
scalar IntersectionExampleScenario.node[11].nic.mac1609_4 	TooLittleTime 	0
scalar IntersectionExampleScenario.node[11].nic.mac1609_4 	TimesIntoBackoff 	0
scalar IntersectionExampleScenario.node[11].nic.mac1609_4 	SlotsBackoff 	0
scalar IntersectionExampleScenario.node[11].nic.mac1609_4 	NumInternalContention 	0
scalar IntersectionExampleScenario.node[11].nic.mac1609_4 	totalBusyTime 	0
scalar IntersectionExampleScenario.node[11].veinsmobility 	startTime 	49.75
scalar IntersectionExampleScenario.node[11].veinsmobility 	totalTime 	48
scalar IntersectionExampleScenario.node[11].veinsmobility 	stopTime 	98
scalar IntersectionExampleScenario.node[11].veinsmobility 	minSpeed 	1.7352777719498
scalar IntersectionExampleScenario.node[11].veinsmobility 	maxSpeed 	15.875
scalar IntersectionExampleScenario.node[11].veinsmobility 	totalDistance 	545.03783177029
scalar IntersectionExampleScenario.node[11].veinsmobility 	totalCO2Emission 	138.78148043563
scalar IntersectionExampleScenario.node[12].appl 	VehicleRemoved 	0
scalar IntersectionExampleScenario.node[12].appl 	ArrivedAtDest 	1
scalar IntersectionExampleScenario.node[12].appl 	IntersectionEnterTime 	51.25
scalar IntersectionExampleScenario.node[12].appl 	IntersectionExitTime 	83.80933923769
scalar IntersectionExampleScenario.node[12].appl 	NumberOfCollisions 	0
scalar IntersectionExampleScenario.node[12].nic.phy80211p 	busyTime 	0
scalar IntersectionExampleScenario.node[12].nic.mac1609_4 	ReceivedUnicastPackets 	0
scalar IntersectionExampleScenario.node[12].nic.mac1609_4 	ReceivedBroadcasts 	0
scalar IntersectionExampleScenario.node[12].nic.mac1609_4 	SentPackets 	0
scalar IntersectionExampleScenario.node[12].nic.mac1609_4 	SNIRLostPackets 	0
scalar IntersectionExampleScenario.node[12].nic.mac1609_4 	RXTXLostPackets 	0
scalar IntersectionExampleScenario.node[12].nic.mac1609_4 	TotalLostPackets 	0
scalar IntersectionExampleScenario.node[12].nic.mac1609_4 	DroppedPacketsInMac 	0
scalar IntersectionExampleScenario.node[12].nic.mac1609_4 	TooLittleTime 	0
scalar IntersectionExampleScenario.node[12].nic.mac1609_4 	TimesIntoBackoff 	0
scalar IntersectionExampleScenario.node[12].nic.mac1609_4 	SlotsBackoff 	0
scalar IntersectionExampleScenario.node[12].nic.mac1609_4 	NumInternalContention 	0
scalar IntersectionExampleScenario.node[12].nic.mac1609_4 	totalBusyTime 	0
scalar IntersectionExampleScenario.node[12].veinsmobility 	startTime 	51.25
scalar IntersectionExampleScenario.node[12].veinsmobility 	totalTime 	49
scalar IntersectionExampleScenario.node[12].veinsmobility 	stopTime 	100.5
scalar IntersectionExampleScenario.node[12].veinsmobility 	minSpeed 	3.6812114715576
scalar IntersectionExampleScenario.node[12].veinsmobility 	maxSpeed 	15.875
scalar IntersectionExampleScenario.node[12].veinsmobility 	totalDistance 	563.95012766525
scalar IntersectionExampleScenario.node[12].veinsmobility 	totalCO2Emission 	142.45818892714
scalar IntersectionExampleScenario.node[17].appl 	VehicleRemoved 	0
scalar IntersectionExampleScenario.node[17].appl 	ArrivedAtDest 	1
scalar IntersectionExampleScenario.node[17].appl 	IntersectionEnterTime 	58
scalar IntersectionExampleScenario.node[17].appl 	IntersectionExitTime 	85.593207355123
scalar IntersectionExampleScenario.node[17].appl 	NumberOfCollisions 	0
scalar IntersectionExampleScenario.node[17].nic.phy80211p 	busyTime 	0
scalar IntersectionExampleScenario.node[17].nic.mac1609_4 	ReceivedUnicastPackets 	0
scalar IntersectionExampleScenario.node[17].nic.mac1609_4 	ReceivedBroadcasts 	0
scalar IntersectionExampleScenario.node[17].nic.mac1609_4 	SentPackets 	0
scalar IntersectionExampleScenario.node[17].nic.mac1609_4 	SNIRLostPackets 	0
scalar IntersectionExampleScenario.node[17].nic.mac1609_4 	RXTXLostPackets 	0
scalar IntersectionExampleScenario.node[17].nic.mac1609_4 	TotalLostPackets 	0
scalar IntersectionExampleScenario.node[17].nic.mac1609_4 	DroppedPacketsInMac 	0
scalar IntersectionExampleScenario.node[17].nic.mac1609_4 	TooLittleTime 	0
scalar IntersectionExampleScenario.node[17].nic.mac1609_4 	TimesIntoBackoff 	0
scalar IntersectionExampleScenario.node[17].nic.mac1609_4 	SlotsBackoff 	0
scalar IntersectionExampleScenario.node[17].nic.mac1609_4 	NumInternalContention 	0
scalar IntersectionExampleScenario.node[17].nic.mac1609_4 	totalBusyTime 	0
scalar IntersectionExampleScenario.node[17].veinsmobility 	startTime 	58
scalar IntersectionExampleScenario.node[17].veinsmobility 	totalTime 	43.75
scalar IntersectionExampleScenario.node[17].veinsmobility 	stopTime 	102
scalar IntersectionExampleScenario.node[17].veinsmobility 	minSpeed 	5.6500000953674
scalar IntersectionExampleScenario.node[17].veinsmobility 	maxSpeed 	15.5
scalar IntersectionExampleScenario.node[17].veinsmobility 	totalDistance 	552.94107818604
scalar IntersectionExampleScenario.node[17].veinsmobility 	totalCO2Emission 	125.11104446121
scalar IntersectionExampleScenario.node[7].appl 	VehicleRemoved 	0
scalar IntersectionExampleScenario.node[7].appl 	ArrivedAtDest 	1
scalar IntersectionExampleScenario.node[7].appl 	IntersectionEnterTime 	44
scalar IntersectionExampleScenario.node[7].appl 	IntersectionExitTime 	94.29396059268
scalar IntersectionExampleScenario.node[7].appl 	NumberOfCollisions 	0
scalar IntersectionExampleScenario.node[7].nic.phy80211p 	busyTime 	0
scalar IntersectionExampleScenario.node[7].nic.mac1609_4 	ReceivedUnicastPackets 	0
scalar IntersectionExampleScenario.node[7].nic.mac1609_4 	ReceivedBroadcasts 	0
scalar IntersectionExampleScenario.node[7].nic.mac1609_4 	SentPackets 	0
scalar IntersectionExampleScenario.node[7].nic.mac1609_4 	SNIRLostPackets 	0
scalar IntersectionExampleScenario.node[7].nic.mac1609_4 	RXTXLostPackets 	0
scalar IntersectionExampleScenario.node[7].nic.mac1609_4 	TotalLostPackets 	0
scalar IntersectionExampleScenario.node[7].nic.mac1609_4 	DroppedPacketsInMac 	0
scalar IntersectionExampleScenario.node[7].nic.mac1609_4 	TooLittleTime 	0
scalar IntersectionExampleScenario.node[7].nic.mac1609_4 	TimesIntoBackoff 	0
scalar IntersectionExampleScenario.node[7].nic.mac1609_4 	SlotsBackoff 	0
scalar IntersectionExampleScenario.node[7].nic.mac1609_4 	NumInternalContention 	0
scalar IntersectionExampleScenario.node[7].nic.mac1609_4 	totalBusyTime 	0
scalar IntersectionExampleScenario.node[7].veinsmobility 	startTime 	44
scalar IntersectionExampleScenario.node[7].veinsmobility 	totalTime 	66.25
scalar IntersectionExampleScenario.node[7].veinsmobility 	stopTime 	110.5
scalar IntersectionExampleScenario.node[7].veinsmobility 	minSpeed 	0
scalar IntersectionExampleScenario.node[7].veinsmobility 	maxSpeed 	15.64999961853
scalar IntersectionExampleScenario.node[7].veinsmobility 	totalDistance 	551.0603953754
scalar IntersectionExampleScenario.node[7].veinsmobility 	totalCO2Emission 	159.88889153936
scalar IntersectionExampleScenario.node[14].appl 	VehicleRemoved 	0
scalar IntersectionExampleScenario.node[14].appl 	ArrivedAtDest 	1
scalar IntersectionExampleScenario.node[14].appl 	IntersectionEnterTime 	52.5
scalar IntersectionExampleScenario.node[14].appl 	IntersectionExitTime 	95.062466981879
scalar IntersectionExampleScenario.node[14].appl 	NumberOfCollisions 	0
scalar IntersectionExampleScenario.node[14].nic.phy80211p 	busyTime 	0
scalar IntersectionExampleScenario.node[14].nic.mac1609_4 	ReceivedUnicastPackets 	0
scalar IntersectionExampleScenario.node[14].nic.mac1609_4 	ReceivedBroadcasts 	0
scalar IntersectionExampleScenario.node[14].nic.mac1609_4 	SentPackets 	0
scalar IntersectionExampleScenario.node[14].nic.mac1609_4 	SNIRLostPackets 	0
scalar IntersectionExampleScenario.node[14].nic.mac1609_4 	RXTXLostPackets 	0
scalar IntersectionExampleScenario.node[14].nic.mac1609_4 	TotalLostPackets 	0
scalar IntersectionExampleScenario.node[14].nic.mac1609_4 	DroppedPacketsInMac 	0
scalar IntersectionExampleScenario.node[14].nic.mac1609_4 	TooLittleTime 	0
scalar IntersectionExampleScenario.node[14].nic.mac1609_4 	TimesIntoBackoff 	0
scalar IntersectionExampleScenario.node[14].nic.mac1609_4 	SlotsBackoff 	0
scalar IntersectionExampleScenario.node[14].nic.mac1609_4 	NumInternalContention 	0
scalar IntersectionExampleScenario.node[14].nic.mac1609_4 	totalBusyTime 	0
scalar IntersectionExampleScenario.node[14].veinsmobility 	startTime 	52.5
scalar IntersectionExampleScenario.node[14].veinsmobility 	totalTime 	59
scalar IntersectionExampleScenario.node[14].veinsmobility 	stopTime 	111.75
scalar IntersectionExampleScenario.node[14].veinsmobility 	minSpeed 	0
scalar IntersectionExampleScenario.node[14].veinsmobility 	maxSpeed 	15.875
scalar IntersectionExampleScenario.node[14].veinsmobility 	totalDistance 	545.9138250703
scalar IntersectionExampleScenario.node[14].veinsmobility 	totalCO2Emission 	150.75267981769
scalar IntersectionExampleScenario.node[8].appl 	VehicleRemoved 	0
scalar IntersectionExampleScenario.node[8].appl 	ArrivedAtDest 	1
scalar IntersectionExampleScenario.node[8].appl 	IntersectionEnterTime 	45.5
scalar IntersectionExampleScenario.node[8].appl 	IntersectionExitTime 	96.539961224626
scalar IntersectionExampleScenario.node[8].appl 	NumberOfCollisions 	0
scalar IntersectionExampleScenario.node[8].nic.phy80211p 	busyTime 	0
scalar IntersectionExampleScenario.node[8].nic.mac1609_4 	ReceivedUnicastPackets 	0
scalar IntersectionExampleScenario.node[8].nic.mac1609_4 	ReceivedBroadcasts 	0
scalar IntersectionExampleScenario.node[8].nic.mac1609_4 	SentPackets 	0
scalar IntersectionExampleScenario.node[8].nic.mac1609_4 	SNIRLostPackets 	0
scalar IntersectionExampleScenario.node[8].nic.mac1609_4 	RXTXLostPackets 	0
scalar IntersectionExampleScenario.node[8].nic.mac1609_4 	TotalLostPackets 	0
scalar IntersectionExampleScenario.node[8].nic.mac1609_4 	DroppedPacketsInMac 	0
scalar IntersectionExampleScenario.node[8].nic.mac1609_4 	TooLittleTime 	0
scalar IntersectionExampleScenario.node[8].nic.mac1609_4 	TimesIntoBackoff 	0
scalar IntersectionExampleScenario.node[8].nic.mac1609_4 	SlotsBackoff 	0
scalar IntersectionExampleScenario.node[8].nic.mac1609_4 	NumInternalContention 	0
scalar IntersectionExampleScenario.node[8].nic.mac1609_4 	totalBusyTime 	0
scalar IntersectionExampleScenario.node[8].veinsmobility 	startTime 	45.5
scalar IntersectionExampleScenario.node[8].veinsmobility 	totalTime 	68.25
scalar IntersectionExampleScenario.node[8].veinsmobility 	stopTime 	114
scalar IntersectionExampleScenario.node[8].veinsmobility 	minSpeed 	0
scalar IntersectionExampleScenario.node[8].veinsmobility 	maxSpeed 	15.25
scalar IntersectionExampleScenario.node[8].veinsmobility 	totalDistance 	546.70625452356
scalar IntersectionExampleScenario.node[8].veinsmobility 	totalCO2Emission 	155.98673404935
scalar IntersectionExampleScenario.node[16].appl 	VehicleRemoved 	0
scalar IntersectionExampleScenario.node[16].appl 	ArrivedAtDest 	1
scalar IntersectionExampleScenario.node[16].appl 	IntersectionEnterTime 	53.75
scalar IntersectionExampleScenario.node[16].appl 	IntersectionExitTime 	97.283896801731
scalar IntersectionExampleScenario.node[16].appl 	NumberOfCollisions 	0
scalar IntersectionExampleScenario.node[16].nic.phy80211p 	busyTime 	0
scalar IntersectionExampleScenario.node[16].nic.mac1609_4 	ReceivedUnicastPackets 	0
scalar IntersectionExampleScenario.node[16].nic.mac1609_4 	ReceivedBroadcasts 	0
scalar IntersectionExampleScenario.node[16].nic.mac1609_4 	SentPackets 	0
scalar IntersectionExampleScenario.node[16].nic.mac1609_4 	SNIRLostPackets 	0
scalar IntersectionExampleScenario.node[16].nic.mac1609_4 	RXTXLostPackets 	0
scalar IntersectionExampleScenario.node[16].nic.mac1609_4 	TotalLostPackets 	0
scalar IntersectionExampleScenario.node[16].nic.mac1609_4 	DroppedPacketsInMac 	0
scalar IntersectionExampleScenario.node[16].nic.mac1609_4 	TooLittleTime 	0
scalar IntersectionExampleScenario.node[16].nic.mac1609_4 	TimesIntoBackoff 	0
scalar IntersectionExampleScenario.node[16].nic.mac1609_4 	SlotsBackoff 	0
scalar IntersectionExampleScenario.node[16].nic.mac1609_4 	NumInternalContention 	0
scalar IntersectionExampleScenario.node[16].nic.mac1609_4 	totalBusyTime 	0
scalar IntersectionExampleScenario.node[16].veinsmobility 	startTime 	53.75
scalar IntersectionExampleScenario.node[16].veinsmobility 	totalTime 	60.25
scalar IntersectionExampleScenario.node[16].veinsmobility 	stopTime 	114.25
scalar IntersectionExampleScenario.node[16].veinsmobility 	minSpeed 	0
scalar IntersectionExampleScenario.node[16].veinsmobility 	maxSpeed 	14.875
scalar IntersectionExampleScenario.node[16].veinsmobility 	totalDistance 	572.27890777588
scalar IntersectionExampleScenario.node[16].veinsmobility 	totalCO2Emission 	145.55489016028
scalar IntersectionExampleScenario.node[9].appl 	VehicleRemoved 	0
scalar IntersectionExampleScenario.node[9].appl 	ArrivedAtDest 	1
scalar IntersectionExampleScenario.node[9].appl 	IntersectionEnterTime 	45.75
scalar IntersectionExampleScenario.node[9].appl 	IntersectionExitTime 	99.329779851105
scalar IntersectionExampleScenario.node[9].appl 	NumberOfCollisions 	0
scalar IntersectionExampleScenario.node[9].nic.phy80211p 	busyTime 	0
scalar IntersectionExampleScenario.node[9].nic.mac1609_4 	ReceivedUnicastPackets 	0
scalar IntersectionExampleScenario.node[9].nic.mac1609_4 	ReceivedBroadcasts 	0
scalar IntersectionExampleScenario.node[9].nic.mac1609_4 	SentPackets 	0
scalar IntersectionExampleScenario.node[9].nic.mac1609_4 	SNIRLostPackets 	0
scalar IntersectionExampleScenario.node[9].nic.mac1609_4 	RXTXLostPackets 	0
scalar IntersectionExampleScenario.node[9].nic.mac1609_4 	TotalLostPackets 	0
scalar IntersectionExampleScenario.node[9].nic.mac1609_4 	DroppedPacketsInMac 	0
scalar IntersectionExampleScenario.node[9].nic.mac1609_4 	TooLittleTime 	0
scalar IntersectionExampleScenario.node[9].nic.mac1609_4 	TimesIntoBackoff 	0
scalar IntersectionExampleScenario.node[9].nic.mac1609_4 	SlotsBackoff 	0
scalar IntersectionExampleScenario.node[9].nic.mac1609_4 	NumInternalContention 	0
scalar IntersectionExampleScenario.node[9].nic.mac1609_4 	totalBusyTime 	0
scalar IntersectionExampleScenario.node[9].veinsmobility 	startTime 	45.75
scalar IntersectionExampleScenario.node[9].veinsmobility 	totalTime 	70.25
scalar IntersectionExampleScenario.node[9].veinsmobility 	stopTime 	116.25
scalar IntersectionExampleScenario.node[9].veinsmobility 	minSpeed 	0
scalar IntersectionExampleScenario.node[9].veinsmobility 	maxSpeed 	15.25
scalar IntersectionExampleScenario.node[9].veinsmobility 	totalDistance 	569.09092456764
scalar IntersectionExampleScenario.node[9].veinsmobility 	totalCO2Emission 	164.38497022329
scalar IntersectionExampleScenario.node[19].appl 	VehicleRemoved 	0
scalar IntersectionExampleScenario.node[19].appl 	ArrivedAtDest 	1
scalar IntersectionExampleScenario.node[19].appl 	IntersectionEnterTime 	71.25
scalar IntersectionExampleScenario.node[19].appl 	IntersectionExitTime 	100.02980030904
scalar IntersectionExampleScenario.node[19].appl 	NumberOfCollisions 	0
scalar IntersectionExampleScenario.node[19].nic.phy80211p 	busyTime 	0
scalar IntersectionExampleScenario.node[19].nic.mac1609_4 	ReceivedUnicastPackets 	0
scalar IntersectionExampleScenario.node[19].nic.mac1609_4 	ReceivedBroadcasts 	0
scalar IntersectionExampleScenario.node[19].nic.mac1609_4 	SentPackets 	0
scalar IntersectionExampleScenario.node[19].nic.mac1609_4 	SNIRLostPackets 	0
scalar IntersectionExampleScenario.node[19].nic.mac1609_4 	RXTXLostPackets 	0
scalar IntersectionExampleScenario.node[19].nic.mac1609_4 	TotalLostPackets 	0
scalar IntersectionExampleScenario.node[19].nic.mac1609_4 	DroppedPacketsInMac 	0
scalar IntersectionExampleScenario.node[19].nic.mac1609_4 	TooLittleTime 	0
scalar IntersectionExampleScenario.node[19].nic.mac1609_4 	TimesIntoBackoff 	0
scalar IntersectionExampleScenario.node[19].nic.mac1609_4 	SlotsBackoff 	0
scalar IntersectionExampleScenario.node[19].nic.mac1609_4 	NumInternalContention 	0
scalar IntersectionExampleScenario.node[19].nic.mac1609_4 	totalBusyTime 	0
scalar IntersectionExampleScenario.node[19].veinsmobility 	startTime 	71.25
scalar IntersectionExampleScenario.node[19].veinsmobility 	totalTime 	46
scalar IntersectionExampleScenario.node[19].veinsmobility 	stopTime 	117.5
scalar IntersectionExampleScenario.node[19].veinsmobility 	minSpeed 	5.5282068252563
scalar IntersectionExampleScenario.node[19].veinsmobility 	maxSpeed 	15.02499961853
scalar IntersectionExampleScenario.node[19].veinsmobility 	totalDistance 	544.08044799784
scalar IntersectionExampleScenario.node[19].veinsmobility 	totalCO2Emission 	134.62151618631
scalar IntersectionExampleScenario.node[15].appl 	VehicleRemoved 	0
scalar IntersectionExampleScenario.node[15].appl 	ArrivedAtDest 	1
scalar IntersectionExampleScenario.node[15].appl 	IntersectionEnterTime 	53
scalar IntersectionExampleScenario.node[15].appl 	IntersectionExitTime 	101.58316245122
scalar IntersectionExampleScenario.node[15].appl 	NumberOfCollisions 	0
scalar IntersectionExampleScenario.node[15].nic.phy80211p 	busyTime 	0
scalar IntersectionExampleScenario.node[15].nic.mac1609_4 	ReceivedUnicastPackets 	0
scalar IntersectionExampleScenario.node[15].nic.mac1609_4 	ReceivedBroadcasts 	0
scalar IntersectionExampleScenario.node[15].nic.mac1609_4 	SentPackets 	0
scalar IntersectionExampleScenario.node[15].nic.mac1609_4 	SNIRLostPackets 	0
scalar IntersectionExampleScenario.node[15].nic.mac1609_4 	RXTXLostPackets 	0
scalar IntersectionExampleScenario.node[15].nic.mac1609_4 	TotalLostPackets 	0
scalar IntersectionExampleScenario.node[15].nic.mac1609_4 	DroppedPacketsInMac 	0
scalar IntersectionExampleScenario.node[15].nic.mac1609_4 	TooLittleTime 	0
scalar IntersectionExampleScenario.node[15].nic.mac1609_4 	TimesIntoBackoff 	0
scalar IntersectionExampleScenario.node[15].nic.mac1609_4 	SlotsBackoff 	0
scalar IntersectionExampleScenario.node[15].nic.mac1609_4 	NumInternalContention 	0
scalar IntersectionExampleScenario.node[15].nic.mac1609_4 	totalBusyTime 	0
scalar IntersectionExampleScenario.node[15].veinsmobility 	startTime 	53
scalar IntersectionExampleScenario.node[15].veinsmobility 	totalTime 	65
scalar IntersectionExampleScenario.node[15].veinsmobility 	stopTime 	118.25
scalar IntersectionExampleScenario.node[15].veinsmobility 	minSpeed 	0
scalar IntersectionExampleScenario.node[15].veinsmobility 	maxSpeed 	15.64999961853
scalar IntersectionExampleScenario.node[15].veinsmobility 	totalDistance 	543.10826433489
scalar IntersectionExampleScenario.node[15].veinsmobility 	totalCO2Emission 	155.02683098379
scalar IntersectionExampleScenario.node[18].appl 	VehicleRemoved 	0
scalar IntersectionExampleScenario.node[18].appl 	ArrivedAtDest 	1
scalar IntersectionExampleScenario.node[18].appl 	IntersectionEnterTime 	69.25
scalar IntersectionExampleScenario.node[18].appl 	IntersectionExitTime 	103.26468983013
scalar IntersectionExampleScenario.node[18].appl 	NumberOfCollisions 	0
scalar IntersectionExampleScenario.node[18].nic.phy80211p 	busyTime 	0
scalar IntersectionExampleScenario.node[18].nic.mac1609_4 	ReceivedUnicastPackets 	0
scalar IntersectionExampleScenario.node[18].nic.mac1609_4 	ReceivedBroadcasts 	0
scalar IntersectionExampleScenario.node[18].nic.mac1609_4 	SentPackets 	0
scalar IntersectionExampleScenario.node[18].nic.mac1609_4 	SNIRLostPackets 	0
scalar IntersectionExampleScenario.node[18].nic.mac1609_4 	RXTXLostPackets 	0
scalar IntersectionExampleScenario.node[18].nic.mac1609_4 	TotalLostPackets 	0
scalar IntersectionExampleScenario.node[18].nic.mac1609_4 	DroppedPacketsInMac 	0
scalar IntersectionExampleScenario.node[18].nic.mac1609_4 	TooLittleTime 	0
scalar IntersectionExampleScenario.node[18].nic.mac1609_4 	TimesIntoBackoff 	0
scalar IntersectionExampleScenario.node[18].nic.mac1609_4 	SlotsBackoff 	0
scalar IntersectionExampleScenario.node[18].nic.mac1609_4 	NumInternalContention 	0
scalar IntersectionExampleScenario.node[18].nic.mac1609_4 	totalBusyTime 	0
scalar IntersectionExampleScenario.node[18].veinsmobility 	startTime 	69.25
scalar IntersectionExampleScenario.node[18].veinsmobility 	totalTime 	49.5
scalar IntersectionExampleScenario.node[18].veinsmobility 	stopTime 	119
scalar IntersectionExampleScenario.node[18].veinsmobility 	minSpeed 	1.5944863557816
scalar IntersectionExampleScenario.node[18].veinsmobility 	maxSpeed 	16.27499961853
scalar IntersectionExampleScenario.node[18].veinsmobility 	totalDistance 	551.81155395508
scalar IntersectionExampleScenario.node[18].veinsmobility 	totalCO2Emission 	142.49808507544
scalar IntersectionExampleScenario.node[21].appl 	VehicleRemoved 	0
scalar IntersectionExampleScenario.node[21].appl 	ArrivedAtDest 	1
scalar IntersectionExampleScenario.node[21].appl 	IntersectionEnterTime 	78.5
scalar IntersectionExampleScenario.node[21].appl 	IntersectionExitTime 	103.35236694748
scalar IntersectionExampleScenario.node[21].appl 	NumberOfCollisions 	0
scalar IntersectionExampleScenario.node[21].nic.phy80211p 	busyTime 	0
scalar IntersectionExampleScenario.node[21].nic.mac1609_4 	ReceivedUnicastPackets 	0
scalar IntersectionExampleScenario.node[21].nic.mac1609_4 	ReceivedBroadcasts 	0
scalar IntersectionExampleScenario.node[21].nic.mac1609_4 	SentPackets 	0
scalar IntersectionExampleScenario.node[21].nic.mac1609_4 	SNIRLostPackets 	0
scalar IntersectionExampleScenario.node[21].nic.mac1609_4 	RXTXLostPackets 	0
scalar IntersectionExampleScenario.node[21].nic.mac1609_4 	TotalLostPackets 	0
scalar IntersectionExampleScenario.node[21].nic.mac1609_4 	DroppedPacketsInMac 	0
scalar IntersectionExampleScenario.node[21].nic.mac1609_4 	TooLittleTime 	0
scalar IntersectionExampleScenario.node[21].nic.mac1609_4 	TimesIntoBackoff 	0
scalar IntersectionExampleScenario.node[21].nic.mac1609_4 	SlotsBackoff 	0
scalar IntersectionExampleScenario.node[21].nic.mac1609_4 	NumInternalContention 	0
scalar IntersectionExampleScenario.node[21].nic.mac1609_4 	totalBusyTime 	0
scalar IntersectionExampleScenario.node[21].veinsmobility 	startTime 	78.5
scalar IntersectionExampleScenario.node[21].veinsmobility 	totalTime 	41.5
scalar IntersectionExampleScenario.node[21].veinsmobility 	stopTime 	120.25
scalar IntersectionExampleScenario.node[21].veinsmobility 	minSpeed 	5.6500000953674
scalar IntersectionExampleScenario.node[21].veinsmobility 	maxSpeed 	15.067691802979
scalar IntersectionExampleScenario.node[21].veinsmobility 	totalDistance 	550.61795788475
scalar IntersectionExampleScenario.node[21].veinsmobility 	totalCO2Emission 	131.2938101447
scalar IntersectionExampleScenario.node[23].appl 	VehicleRemoved 	0
scalar IntersectionExampleScenario.node[23].appl 	ArrivedAtDest 	1
scalar IntersectionExampleScenario.node[23].appl 	IntersectionEnterTime 	82
scalar IntersectionExampleScenario.node[23].appl 	IntersectionExitTime 	105.85083079213
scalar IntersectionExampleScenario.node[23].appl 	NumberOfCollisions 	0
scalar IntersectionExampleScenario.node[23].nic.phy80211p 	busyTime 	0
scalar IntersectionExampleScenario.node[23].nic.mac1609_4 	ReceivedUnicastPackets 	0
scalar IntersectionExampleScenario.node[23].nic.mac1609_4 	ReceivedBroadcasts 	0
scalar IntersectionExampleScenario.node[23].nic.mac1609_4 	SentPackets 	0
scalar IntersectionExampleScenario.node[23].nic.mac1609_4 	SNIRLostPackets 	0
scalar IntersectionExampleScenario.node[23].nic.mac1609_4 	RXTXLostPackets 	0
scalar IntersectionExampleScenario.node[23].nic.mac1609_4 	TotalLostPackets 	0
scalar IntersectionExampleScenario.node[23].nic.mac1609_4 	DroppedPacketsInMac 	0
scalar IntersectionExampleScenario.node[23].nic.mac1609_4 	TooLittleTime 	0
scalar IntersectionExampleScenario.node[23].nic.mac1609_4 	TimesIntoBackoff 	0
scalar IntersectionExampleScenario.node[23].nic.mac1609_4 	SlotsBackoff 	0
scalar IntersectionExampleScenario.node[23].nic.mac1609_4 	NumInternalContention 	0
scalar IntersectionExampleScenario.node[23].nic.mac1609_4 	totalBusyTime 	0
scalar IntersectionExampleScenario.node[23].veinsmobility 	startTime 	82
scalar IntersectionExampleScenario.node[23].veinsmobility 	totalTime 	39.5
scalar IntersectionExampleScenario.node[23].veinsmobility 	stopTime 	121.75
scalar IntersectionExampleScenario.node[23].veinsmobility 	minSpeed 	5.6500000953674
scalar IntersectionExampleScenario.node[23].veinsmobility 	maxSpeed 	15.5
scalar IntersectionExampleScenario.node[23].veinsmobility 	totalDistance 	560.51042938232
scalar IntersectionExampleScenario.node[23].veinsmobility 	totalCO2Emission 	126.93474734954
scalar IntersectionExampleScenario.node[24].appl 	VehicleRemoved 	0
scalar IntersectionExampleScenario.node[24].appl 	ArrivedAtDest 	1
scalar IntersectionExampleScenario.node[24].appl 	IntersectionEnterTime 	86
scalar IntersectionExampleScenario.node[24].appl 	IntersectionExitTime 	110.50103854758
scalar IntersectionExampleScenario.node[24].appl 	NumberOfCollisions 	0
scalar IntersectionExampleScenario.node[24].nic.phy80211p 	busyTime 	0
scalar IntersectionExampleScenario.node[24].nic.mac1609_4 	ReceivedUnicastPackets 	0
scalar IntersectionExampleScenario.node[24].nic.mac1609_4 	ReceivedBroadcasts 	0
scalar IntersectionExampleScenario.node[24].nic.mac1609_4 	SentPackets 	0
scalar IntersectionExampleScenario.node[24].nic.mac1609_4 	SNIRLostPackets 	0
scalar IntersectionExampleScenario.node[24].nic.mac1609_4 	RXTXLostPackets 	0
scalar IntersectionExampleScenario.node[24].nic.mac1609_4 	TotalLostPackets 	0
scalar IntersectionExampleScenario.node[24].nic.mac1609_4 	DroppedPacketsInMac 	0
scalar IntersectionExampleScenario.node[24].nic.mac1609_4 	TooLittleTime 	0
scalar IntersectionExampleScenario.node[24].nic.mac1609_4 	TimesIntoBackoff 	0
scalar IntersectionExampleScenario.node[24].nic.mac1609_4 	SlotsBackoff 	0
scalar IntersectionExampleScenario.node[24].nic.mac1609_4 	NumInternalContention 	0
scalar IntersectionExampleScenario.node[24].nic.mac1609_4 	totalBusyTime 	0
scalar IntersectionExampleScenario.node[24].veinsmobility 	startTime 	86
scalar IntersectionExampleScenario.node[24].veinsmobility 	totalTime 	40.25
scalar IntersectionExampleScenario.node[24].veinsmobility 	stopTime 	126.5
scalar IntersectionExampleScenario.node[24].veinsmobility 	minSpeed 	5.082507610321
scalar IntersectionExampleScenario.node[24].veinsmobility 	maxSpeed 	15.744699478149
scalar IntersectionExampleScenario.node[24].veinsmobility 	totalDistance 	554.16539001465
scalar IntersectionExampleScenario.node[24].veinsmobility 	totalCO2Emission 	133.29140127503
scalar IntersectionExampleScenario.node[28].appl 	VehicleRemoved 	0
scalar IntersectionExampleScenario.node[28].appl 	ArrivedAtDest 	1
scalar IntersectionExampleScenario.node[28].appl 	IntersectionEnterTime 	99.75
scalar IntersectionExampleScenario.node[28].appl 	IntersectionExitTime 	122.87361736735
scalar IntersectionExampleScenario.node[28].appl 	NumberOfCollisions 	0
scalar IntersectionExampleScenario.node[28].nic.phy80211p 	busyTime 	0
scalar IntersectionExampleScenario.node[28].nic.mac1609_4 	ReceivedUnicastPackets 	0
scalar IntersectionExampleScenario.node[28].nic.mac1609_4 	ReceivedBroadcasts 	0
scalar IntersectionExampleScenario.node[28].nic.mac1609_4 	SentPackets 	0
scalar IntersectionExampleScenario.node[28].nic.mac1609_4 	SNIRLostPackets 	0
scalar IntersectionExampleScenario.node[28].nic.mac1609_4 	RXTXLostPackets 	0
scalar IntersectionExampleScenario.node[28].nic.mac1609_4 	TotalLostPackets 	0
scalar IntersectionExampleScenario.node[28].nic.mac1609_4 	DroppedPacketsInMac 	0
scalar IntersectionExampleScenario.node[28].nic.mac1609_4 	TooLittleTime 	0
scalar IntersectionExampleScenario.node[28].nic.mac1609_4 	TimesIntoBackoff 	0
scalar IntersectionExampleScenario.node[28].nic.mac1609_4 	SlotsBackoff 	0
scalar IntersectionExampleScenario.node[28].nic.mac1609_4 	NumInternalContention 	0
scalar IntersectionExampleScenario.node[28].nic.mac1609_4 	totalBusyTime 	0
scalar IntersectionExampleScenario.node[28].veinsmobility 	startTime 	99.75
scalar IntersectionExampleScenario.node[28].veinsmobility 	totalTime 	39.25
scalar IntersectionExampleScenario.node[28].veinsmobility 	stopTime 	139.25
scalar IntersectionExampleScenario.node[28].veinsmobility 	minSpeed 	5.6500000953674
scalar IntersectionExampleScenario.node[28].veinsmobility 	maxSpeed 	16.27499961853
scalar IntersectionExampleScenario.node[28].veinsmobility 	totalDistance 	545.91918603256
scalar IntersectionExampleScenario.node[28].veinsmobility 	totalCO2Emission 	130.55407952806
scalar IntersectionExampleScenario.node[20].appl 	VehicleRemoved 	0
scalar IntersectionExampleScenario.node[20].appl 	ArrivedAtDest 	1
scalar IntersectionExampleScenario.node[20].appl 	IntersectionEnterTime 	71.75
scalar IntersectionExampleScenario.node[20].appl 	IntersectionExitTime 	125.28731685635
scalar IntersectionExampleScenario.node[20].appl 	NumberOfCollisions 	0
scalar IntersectionExampleScenario.node[20].nic.phy80211p 	busyTime 	0
scalar IntersectionExampleScenario.node[20].nic.mac1609_4 	ReceivedUnicastPackets 	0
scalar IntersectionExampleScenario.node[20].nic.mac1609_4 	ReceivedBroadcasts 	0
scalar IntersectionExampleScenario.node[20].nic.mac1609_4 	SentPackets 	0
scalar IntersectionExampleScenario.node[20].nic.mac1609_4 	SNIRLostPackets 	0
scalar IntersectionExampleScenario.node[20].nic.mac1609_4 	RXTXLostPackets 	0
scalar IntersectionExampleScenario.node[20].nic.mac1609_4 	TotalLostPackets 	0
scalar IntersectionExampleScenario.node[20].nic.mac1609_4 	DroppedPacketsInMac 	0
scalar IntersectionExampleScenario.node[20].nic.mac1609_4 	TooLittleTime 	0
scalar IntersectionExampleScenario.node[20].nic.mac1609_4 	TimesIntoBackoff 	0
scalar IntersectionExampleScenario.node[20].nic.mac1609_4 	SlotsBackoff 	0
scalar IntersectionExampleScenario.node[20].nic.mac1609_4 	NumInternalContention 	0
scalar IntersectionExampleScenario.node[20].nic.mac1609_4 	totalBusyTime 	0
scalar IntersectionExampleScenario.node[20].veinsmobility 	startTime 	71.75
scalar IntersectionExampleScenario.node[20].veinsmobility 	totalTime 	68.5
scalar IntersectionExampleScenario.node[20].veinsmobility 	stopTime 	140.5
scalar IntersectionExampleScenario.node[20].veinsmobility 	minSpeed 	0
scalar IntersectionExampleScenario.node[20].veinsmobility 	maxSpeed 	16.89999961853
scalar IntersectionExampleScenario.node[20].veinsmobility 	totalDistance 	552.38150787354
scalar IntersectionExampleScenario.node[20].veinsmobility 	totalCO2Emission 	171.92649030024
scalar IntersectionExampleScenario.node[22].appl 	VehicleRemoved 	0
scalar IntersectionExampleScenario.node[22].appl 	ArrivedAtDest 	1
scalar IntersectionExampleScenario.node[22].appl 	IntersectionEnterTime 	81.5
scalar IntersectionExampleScenario.node[22].appl 	IntersectionExitTime 	126.27234462718
scalar IntersectionExampleScenario.node[22].appl 	NumberOfCollisions 	0
scalar IntersectionExampleScenario.node[22].nic.phy80211p 	busyTime 	0
scalar IntersectionExampleScenario.node[22].nic.mac1609_4 	ReceivedUnicastPackets 	0
scalar IntersectionExampleScenario.node[22].nic.mac1609_4 	ReceivedBroadcasts 	0
scalar IntersectionExampleScenario.node[22].nic.mac1609_4 	SentPackets 	0
scalar IntersectionExampleScenario.node[22].nic.mac1609_4 	SNIRLostPackets 	0
scalar IntersectionExampleScenario.node[22].nic.mac1609_4 	RXTXLostPackets 	0
scalar IntersectionExampleScenario.node[22].nic.mac1609_4 	TotalLostPackets 	0
scalar IntersectionExampleScenario.node[22].nic.mac1609_4 	DroppedPacketsInMac 	0
scalar IntersectionExampleScenario.node[22].nic.mac1609_4 	TooLittleTime 	0
scalar IntersectionExampleScenario.node[22].nic.mac1609_4 	TimesIntoBackoff 	0
scalar IntersectionExampleScenario.node[22].nic.mac1609_4 	SlotsBackoff 	0
scalar IntersectionExampleScenario.node[22].nic.mac1609_4 	NumInternalContention 	0
scalar IntersectionExampleScenario.node[22].nic.mac1609_4 	totalBusyTime 	0
scalar IntersectionExampleScenario.node[22].veinsmobility 	startTime 	81.5
scalar IntersectionExampleScenario.node[22].veinsmobility 	totalTime 	60.75
scalar IntersectionExampleScenario.node[22].veinsmobility 	stopTime 	142.5
scalar IntersectionExampleScenario.node[22].veinsmobility 	minSpeed 	0
scalar IntersectionExampleScenario.node[22].veinsmobility 	maxSpeed 	16.27499961853
scalar IntersectionExampleScenario.node[22].veinsmobility 	totalDistance 	550.98006177778
scalar IntersectionExampleScenario.node[22].veinsmobility 	totalCO2Emission 	154.45241830155
scalar IntersectionExampleScenario.node[30].appl 	VehicleRemoved 	0
scalar IntersectionExampleScenario.node[30].appl 	ArrivedAtDest 	1
scalar IntersectionExampleScenario.node[30].appl 	IntersectionEnterTime 	105.25
scalar IntersectionExampleScenario.node[30].appl 	IntersectionExitTime 	129.0797329841
scalar IntersectionExampleScenario.node[30].appl 	NumberOfCollisions 	0
scalar IntersectionExampleScenario.node[30].nic.phy80211p 	busyTime 	0
scalar IntersectionExampleScenario.node[30].nic.mac1609_4 	ReceivedUnicastPackets 	0
scalar IntersectionExampleScenario.node[30].nic.mac1609_4 	ReceivedBroadcasts 	0
scalar IntersectionExampleScenario.node[30].nic.mac1609_4 	SentPackets 	0
scalar IntersectionExampleScenario.node[30].nic.mac1609_4 	SNIRLostPackets 	0
scalar IntersectionExampleScenario.node[30].nic.mac1609_4 	RXTXLostPackets 	0
scalar IntersectionExampleScenario.node[30].nic.mac1609_4 	TotalLostPackets 	0
scalar IntersectionExampleScenario.node[30].nic.mac1609_4 	DroppedPacketsInMac 	0
scalar IntersectionExampleScenario.node[30].nic.mac1609_4 	TooLittleTime 	0
scalar IntersectionExampleScenario.node[30].nic.mac1609_4 	TimesIntoBackoff 	0
scalar IntersectionExampleScenario.node[30].nic.mac1609_4 	SlotsBackoff 	0
scalar IntersectionExampleScenario.node[30].nic.mac1609_4 	NumInternalContention 	0
scalar IntersectionExampleScenario.node[30].nic.mac1609_4 	totalBusyTime 	0
scalar IntersectionExampleScenario.node[30].veinsmobility 	startTime 	105.25
scalar IntersectionExampleScenario.node[30].veinsmobility 	totalTime 	39.75
scalar IntersectionExampleScenario.node[30].veinsmobility 	stopTime 	145.25
scalar IntersectionExampleScenario.node[30].veinsmobility 	minSpeed 	5.6500000953674
scalar IntersectionExampleScenario.node[30].veinsmobility 	maxSpeed 	15.64999961853
scalar IntersectionExampleScenario.node[30].veinsmobility 	totalDistance 	554.32651519775
scalar IntersectionExampleScenario.node[30].veinsmobility 	totalCO2Emission 	131.4497155665
scalar IntersectionExampleScenario.node[25].appl 	VehicleRemoved 	0
scalar IntersectionExampleScenario.node[25].appl 	ArrivedAtDest 	1
scalar IntersectionExampleScenario.node[25].appl 	IntersectionEnterTime 	90.75
scalar IntersectionExampleScenario.node[25].appl 	IntersectionExitTime 	139.3730050805
scalar IntersectionExampleScenario.node[25].appl 	NumberOfCollisions 	0
scalar IntersectionExampleScenario.node[25].nic.phy80211p 	busyTime 	0
scalar IntersectionExampleScenario.node[25].nic.mac1609_4 	ReceivedUnicastPackets 	0
scalar IntersectionExampleScenario.node[25].nic.mac1609_4 	ReceivedBroadcasts 	0
scalar IntersectionExampleScenario.node[25].nic.mac1609_4 	SentPackets 	0
scalar IntersectionExampleScenario.node[25].nic.mac1609_4 	SNIRLostPackets 	0
scalar IntersectionExampleScenario.node[25].nic.mac1609_4 	RXTXLostPackets 	0
scalar IntersectionExampleScenario.node[25].nic.mac1609_4 	TotalLostPackets 	0
scalar IntersectionExampleScenario.node[25].nic.mac1609_4 	DroppedPacketsInMac 	0
scalar IntersectionExampleScenario.node[25].nic.mac1609_4 	TooLittleTime 	0
scalar IntersectionExampleScenario.node[25].nic.mac1609_4 	TimesIntoBackoff 	0
scalar IntersectionExampleScenario.node[25].nic.mac1609_4 	SlotsBackoff 	0
scalar IntersectionExampleScenario.node[25].nic.mac1609_4 	NumInternalContention 	0
scalar IntersectionExampleScenario.node[25].nic.mac1609_4 	totalBusyTime 	0
scalar IntersectionExampleScenario.node[25].veinsmobility 	startTime 	90.75
scalar IntersectionExampleScenario.node[25].veinsmobility 	totalTime 	63.75
scalar IntersectionExampleScenario.node[25].veinsmobility 	stopTime 	154.75
scalar IntersectionExampleScenario.node[25].veinsmobility 	minSpeed 	0
scalar IntersectionExampleScenario.node[25].veinsmobility 	maxSpeed 	16.27499961853
scalar IntersectionExampleScenario.node[25].veinsmobility 	totalDistance 	551.21347808838
scalar IntersectionExampleScenario.node[25].veinsmobility 	totalCO2Emission 	161.7334107762
scalar IntersectionExampleScenario.node[26].appl 	VehicleRemoved 	0
scalar IntersectionExampleScenario.node[26].appl 	ArrivedAtDest 	1
scalar IntersectionExampleScenario.node[26].appl 	IntersectionEnterTime 	93.25
scalar IntersectionExampleScenario.node[26].appl 	IntersectionExitTime 	139.27951679583
scalar IntersectionExampleScenario.node[26].appl 	NumberOfCollisions 	0
scalar IntersectionExampleScenario.node[26].nic.phy80211p 	busyTime 	0
scalar IntersectionExampleScenario.node[26].nic.mac1609_4 	ReceivedUnicastPackets 	0
scalar IntersectionExampleScenario.node[26].nic.mac1609_4 	ReceivedBroadcasts 	0
scalar IntersectionExampleScenario.node[26].nic.mac1609_4 	SentPackets 	0
scalar IntersectionExampleScenario.node[26].nic.mac1609_4 	SNIRLostPackets 	0
scalar IntersectionExampleScenario.node[26].nic.mac1609_4 	RXTXLostPackets 	0
scalar IntersectionExampleScenario.node[26].nic.mac1609_4 	TotalLostPackets 	0
scalar IntersectionExampleScenario.node[26].nic.mac1609_4 	DroppedPacketsInMac 	0
scalar IntersectionExampleScenario.node[26].nic.mac1609_4 	TooLittleTime 	0
scalar IntersectionExampleScenario.node[26].nic.mac1609_4 	TimesIntoBackoff 	0
scalar IntersectionExampleScenario.node[26].nic.mac1609_4 	SlotsBackoff 	0
scalar IntersectionExampleScenario.node[26].nic.mac1609_4 	NumInternalContention 	0
scalar IntersectionExampleScenario.node[26].nic.mac1609_4 	totalBusyTime 	0
scalar IntersectionExampleScenario.node[26].veinsmobility 	startTime 	93.25
scalar IntersectionExampleScenario.node[26].veinsmobility 	totalTime 	62
scalar IntersectionExampleScenario.node[26].veinsmobility 	stopTime 	155.5
scalar IntersectionExampleScenario.node[26].veinsmobility 	minSpeed 	0
scalar IntersectionExampleScenario.node[26].veinsmobility 	maxSpeed 	15.64999961853
scalar IntersectionExampleScenario.node[26].veinsmobility 	totalDistance 	548.86374773135
scalar IntersectionExampleScenario.node[26].veinsmobility 	totalCO2Emission 	153.84218159916
scalar IntersectionExampleScenario.node[27].appl 	VehicleRemoved 	0
scalar IntersectionExampleScenario.node[27].appl 	ArrivedAtDest 	1
scalar IntersectionExampleScenario.node[27].appl 	IntersectionEnterTime 	95.5
scalar IntersectionExampleScenario.node[27].appl 	IntersectionExitTime 	141.7619535457
scalar IntersectionExampleScenario.node[27].appl 	NumberOfCollisions 	0
scalar IntersectionExampleScenario.node[27].nic.phy80211p 	busyTime 	0
scalar IntersectionExampleScenario.node[27].nic.mac1609_4 	ReceivedUnicastPackets 	0
scalar IntersectionExampleScenario.node[27].nic.mac1609_4 	ReceivedBroadcasts 	0
scalar IntersectionExampleScenario.node[27].nic.mac1609_4 	SentPackets 	0
scalar IntersectionExampleScenario.node[27].nic.mac1609_4 	SNIRLostPackets 	0
scalar IntersectionExampleScenario.node[27].nic.mac1609_4 	RXTXLostPackets 	0
scalar IntersectionExampleScenario.node[27].nic.mac1609_4 	TotalLostPackets 	0
scalar IntersectionExampleScenario.node[27].nic.mac1609_4 	DroppedPacketsInMac 	0
scalar IntersectionExampleScenario.node[27].nic.mac1609_4 	TooLittleTime 	0
scalar IntersectionExampleScenario.node[27].nic.mac1609_4 	TimesIntoBackoff 	0
scalar IntersectionExampleScenario.node[27].nic.mac1609_4 	SlotsBackoff 	0
scalar IntersectionExampleScenario.node[27].nic.mac1609_4 	NumInternalContention 	0
scalar IntersectionExampleScenario.node[27].nic.mac1609_4 	totalBusyTime 	0
scalar IntersectionExampleScenario.node[27].veinsmobility 	startTime 	95.5
scalar IntersectionExampleScenario.node[27].veinsmobility 	totalTime 	62.75
scalar IntersectionExampleScenario.node[27].veinsmobility 	stopTime 	158.5
scalar IntersectionExampleScenario.node[27].veinsmobility 	minSpeed 	0
scalar IntersectionExampleScenario.node[27].veinsmobility 	maxSpeed 	15.02499961853
scalar IntersectionExampleScenario.node[27].veinsmobility 	totalDistance 	551.8143081665
scalar IntersectionExampleScenario.node[27].veinsmobility 	totalCO2Emission 	147.6132288531
scalar IntersectionExampleScenario.node[31].appl 	VehicleRemoved 	0
scalar IntersectionExampleScenario.node[31].appl 	ArrivedAtDest 	1
scalar IntersectionExampleScenario.node[31].appl 	IntersectionEnterTime 	109.75
scalar IntersectionExampleScenario.node[31].appl 	IntersectionExitTime 	143.55222284284
scalar IntersectionExampleScenario.node[31].appl 	NumberOfCollisions 	0
scalar IntersectionExampleScenario.node[31].nic.phy80211p 	busyTime 	0
scalar IntersectionExampleScenario.node[31].nic.mac1609_4 	ReceivedUnicastPackets 	0
scalar IntersectionExampleScenario.node[31].nic.mac1609_4 	ReceivedBroadcasts 	0
scalar IntersectionExampleScenario.node[31].nic.mac1609_4 	SentPackets 	0
scalar IntersectionExampleScenario.node[31].nic.mac1609_4 	SNIRLostPackets 	0
scalar IntersectionExampleScenario.node[31].nic.mac1609_4 	RXTXLostPackets 	0
scalar IntersectionExampleScenario.node[31].nic.mac1609_4 	TotalLostPackets 	0
scalar IntersectionExampleScenario.node[31].nic.mac1609_4 	DroppedPacketsInMac 	0
scalar IntersectionExampleScenario.node[31].nic.mac1609_4 	TooLittleTime 	0
scalar IntersectionExampleScenario.node[31].nic.mac1609_4 	TimesIntoBackoff 	0
scalar IntersectionExampleScenario.node[31].nic.mac1609_4 	SlotsBackoff 	0
scalar IntersectionExampleScenario.node[31].nic.mac1609_4 	NumInternalContention 	0
scalar IntersectionExampleScenario.node[31].nic.mac1609_4 	totalBusyTime 	0
scalar IntersectionExampleScenario.node[31].veinsmobility 	startTime 	109.75
scalar IntersectionExampleScenario.node[31].veinsmobility 	totalTime 	50
scalar IntersectionExampleScenario.node[31].veinsmobility 	stopTime 	160
scalar IntersectionExampleScenario.node[31].veinsmobility 	minSpeed 	1.6664381027222
scalar IntersectionExampleScenario.node[31].veinsmobility 	maxSpeed 	15.64999961853
scalar IntersectionExampleScenario.node[31].veinsmobility 	totalDistance 	551.57398350042
scalar IntersectionExampleScenario.node[31].veinsmobility 	totalCO2Emission 	140.02584357455
scalar IntersectionExampleScenario.node[32].appl 	VehicleRemoved 	0
scalar IntersectionExampleScenario.node[32].appl 	ArrivedAtDest 	1
scalar IntersectionExampleScenario.node[32].appl 	IntersectionEnterTime 	112
scalar IntersectionExampleScenario.node[32].appl 	IntersectionExitTime 	146.27456782572
scalar IntersectionExampleScenario.node[32].appl 	NumberOfCollisions 	0
scalar IntersectionExampleScenario.node[32].nic.phy80211p 	busyTime 	0
scalar IntersectionExampleScenario.node[32].nic.mac1609_4 	ReceivedUnicastPackets 	0
scalar IntersectionExampleScenario.node[32].nic.mac1609_4 	ReceivedBroadcasts 	0
scalar IntersectionExampleScenario.node[32].nic.mac1609_4 	SentPackets 	0
scalar IntersectionExampleScenario.node[32].nic.mac1609_4 	SNIRLostPackets 	0
scalar IntersectionExampleScenario.node[32].nic.mac1609_4 	RXTXLostPackets 	0
scalar IntersectionExampleScenario.node[32].nic.mac1609_4 	TotalLostPackets 	0
scalar IntersectionExampleScenario.node[32].nic.mac1609_4 	DroppedPacketsInMac 	0
scalar IntersectionExampleScenario.node[32].nic.mac1609_4 	TooLittleTime 	0
scalar IntersectionExampleScenario.node[32].nic.mac1609_4 	TimesIntoBackoff 	0
scalar IntersectionExampleScenario.node[32].nic.mac1609_4 	SlotsBackoff 	0
scalar IntersectionExampleScenario.node[32].nic.mac1609_4 	NumInternalContention 	0
scalar IntersectionExampleScenario.node[32].nic.mac1609_4 	totalBusyTime 	0
scalar IntersectionExampleScenario.node[32].veinsmobility 	startTime 	112
scalar IntersectionExampleScenario.node[32].veinsmobility 	totalTime 	51.25
scalar IntersectionExampleScenario.node[32].veinsmobility 	stopTime 	163.5
scalar IntersectionExampleScenario.node[32].veinsmobility 	minSpeed 	2.5302691459656
scalar IntersectionExampleScenario.node[32].veinsmobility 	maxSpeed 	15.02499961853
scalar IntersectionExampleScenario.node[32].veinsmobility 	totalDistance 	567.7551143533
scalar IntersectionExampleScenario.node[32].veinsmobility 	totalCO2Emission 	138.34229783275
scalar IntersectionExampleScenario.node[33].appl 	VehicleRemoved 	0
scalar IntersectionExampleScenario.node[33].appl 	ArrivedAtDest 	1
scalar IntersectionExampleScenario.node[33].appl 	IntersectionEnterTime 	124.25
scalar IntersectionExampleScenario.node[33].appl 	IntersectionExitTime 	147.32305459899
scalar IntersectionExampleScenario.node[33].appl 	NumberOfCollisions 	0
scalar IntersectionExampleScenario.node[33].nic.phy80211p 	busyTime 	0
scalar IntersectionExampleScenario.node[33].nic.mac1609_4 	ReceivedUnicastPackets 	0
scalar IntersectionExampleScenario.node[33].nic.mac1609_4 	ReceivedBroadcasts 	0
scalar IntersectionExampleScenario.node[33].nic.mac1609_4 	SentPackets 	0
scalar IntersectionExampleScenario.node[33].nic.mac1609_4 	SNIRLostPackets 	0
scalar IntersectionExampleScenario.node[33].nic.mac1609_4 	RXTXLostPackets 	0
scalar IntersectionExampleScenario.node[33].nic.mac1609_4 	TotalLostPackets 	0
scalar IntersectionExampleScenario.node[33].nic.mac1609_4 	DroppedPacketsInMac 	0
scalar IntersectionExampleScenario.node[33].nic.mac1609_4 	TooLittleTime 	0
scalar IntersectionExampleScenario.node[33].nic.mac1609_4 	TimesIntoBackoff 	0
scalar IntersectionExampleScenario.node[33].nic.mac1609_4 	SlotsBackoff 	0
scalar IntersectionExampleScenario.node[33].nic.mac1609_4 	NumInternalContention 	0
scalar IntersectionExampleScenario.node[33].nic.mac1609_4 	totalBusyTime 	0
scalar IntersectionExampleScenario.node[33].veinsmobility 	startTime 	124.25
scalar IntersectionExampleScenario.node[33].veinsmobility 	totalTime 	40.25
scalar IntersectionExampleScenario.node[33].veinsmobility 	stopTime 	164.75
scalar IntersectionExampleScenario.node[33].veinsmobility 	minSpeed 	5.6500000953674
scalar IntersectionExampleScenario.node[33].veinsmobility 	maxSpeed 	15.863456726074
scalar IntersectionExampleScenario.node[33].veinsmobility 	totalDistance 	545.06720391332
scalar IntersectionExampleScenario.node[33].veinsmobility 	totalCO2Emission 	136.11952758909
scalar IntersectionExampleScenario.node[34].appl 	VehicleRemoved 	0
scalar IntersectionExampleScenario.node[34].appl 	ArrivedAtDest 	1
scalar IntersectionExampleScenario.node[34].appl 	IntersectionEnterTime 	125.75
scalar IntersectionExampleScenario.node[34].appl 	IntersectionExitTime 	151.01581621799
scalar IntersectionExampleScenario.node[34].appl 	NumberOfCollisions 	0
scalar IntersectionExampleScenario.node[34].nic.phy80211p 	busyTime 	0
scalar IntersectionExampleScenario.node[34].nic.mac1609_4 	ReceivedUnicastPackets 	0
scalar IntersectionExampleScenario.node[34].nic.mac1609_4 	ReceivedBroadcasts 	0
scalar IntersectionExampleScenario.node[34].nic.mac1609_4 	SentPackets 	0
scalar IntersectionExampleScenario.node[34].nic.mac1609_4 	SNIRLostPackets 	0
scalar IntersectionExampleScenario.node[34].nic.mac1609_4 	RXTXLostPackets 	0
scalar IntersectionExampleScenario.node[34].nic.mac1609_4 	TotalLostPackets 	0
scalar IntersectionExampleScenario.node[34].nic.mac1609_4 	DroppedPacketsInMac 	0
scalar IntersectionExampleScenario.node[34].nic.mac1609_4 	TooLittleTime 	0
scalar IntersectionExampleScenario.node[34].nic.mac1609_4 	TimesIntoBackoff 	0
scalar IntersectionExampleScenario.node[34].nic.mac1609_4 	SlotsBackoff 	0
scalar IntersectionExampleScenario.node[34].nic.mac1609_4 	NumInternalContention 	0
scalar IntersectionExampleScenario.node[34].nic.mac1609_4 	totalBusyTime 	0
scalar IntersectionExampleScenario.node[34].veinsmobility 	startTime 	125.75
scalar IntersectionExampleScenario.node[34].veinsmobility 	totalTime 	42.25
scalar IntersectionExampleScenario.node[34].veinsmobility 	stopTime 	168.25
scalar IntersectionExampleScenario.node[34].veinsmobility 	minSpeed 	5.6500000953674
scalar IntersectionExampleScenario.node[34].veinsmobility 	maxSpeed 	15.02499961853
scalar IntersectionExampleScenario.node[34].veinsmobility 	totalDistance 	572.08193376358
scalar IntersectionExampleScenario.node[34].veinsmobility 	totalCO2Emission 	122.3363037305
scalar IntersectionExampleScenario.node[36].appl 	VehicleRemoved 	0
scalar IntersectionExampleScenario.node[36].appl 	ArrivedAtDest 	1
scalar IntersectionExampleScenario.node[36].appl 	IntersectionEnterTime 	129
scalar IntersectionExampleScenario.node[36].appl 	IntersectionExitTime 	153.51084590744
scalar IntersectionExampleScenario.node[36].appl 	NumberOfCollisions 	0
scalar IntersectionExampleScenario.node[36].nic.phy80211p 	busyTime 	0
scalar IntersectionExampleScenario.node[36].nic.mac1609_4 	ReceivedUnicastPackets 	0
scalar IntersectionExampleScenario.node[36].nic.mac1609_4 	ReceivedBroadcasts 	0
scalar IntersectionExampleScenario.node[36].nic.mac1609_4 	SentPackets 	0
scalar IntersectionExampleScenario.node[36].nic.mac1609_4 	SNIRLostPackets 	0
scalar IntersectionExampleScenario.node[36].nic.mac1609_4 	RXTXLostPackets 	0
scalar IntersectionExampleScenario.node[36].nic.mac1609_4 	TotalLostPackets 	0
scalar IntersectionExampleScenario.node[36].nic.mac1609_4 	DroppedPacketsInMac 	0
scalar IntersectionExampleScenario.node[36].nic.mac1609_4 	TooLittleTime 	0
scalar IntersectionExampleScenario.node[36].nic.mac1609_4 	TimesIntoBackoff 	0
scalar IntersectionExampleScenario.node[36].nic.mac1609_4 	SlotsBackoff 	0
scalar IntersectionExampleScenario.node[36].nic.mac1609_4 	NumInternalContention 	0
scalar IntersectionExampleScenario.node[36].nic.mac1609_4 	totalBusyTime 	0
scalar IntersectionExampleScenario.node[36].veinsmobility 	startTime 	129
scalar IntersectionExampleScenario.node[36].veinsmobility 	totalTime 	42
scalar IntersectionExampleScenario.node[36].veinsmobility 	stopTime 	171.25
scalar IntersectionExampleScenario.node[36].veinsmobility 	minSpeed 	5.6500000953674
scalar IntersectionExampleScenario.node[36].veinsmobility 	maxSpeed 	14.625
scalar IntersectionExampleScenario.node[36].veinsmobility 	totalDistance 	544.21892354334
scalar IntersectionExampleScenario.node[36].veinsmobility 	totalCO2Emission 	120.83558288635
scalar IntersectionExampleScenario.node[29].appl 	VehicleRemoved 	0
scalar IntersectionExampleScenario.node[29].appl 	ArrivedAtDest 	1
scalar IntersectionExampleScenario.node[29].appl 	IntersectionEnterTime 	104.5
scalar IntersectionExampleScenario.node[29].appl 	IntersectionExitTime 	155.55899413963
scalar IntersectionExampleScenario.node[29].appl 	NumberOfCollisions 	0
scalar IntersectionExampleScenario.node[29].nic.phy80211p 	busyTime 	0
scalar IntersectionExampleScenario.node[29].nic.mac1609_4 	ReceivedUnicastPackets 	0
scalar IntersectionExampleScenario.node[29].nic.mac1609_4 	ReceivedBroadcasts 	0
scalar IntersectionExampleScenario.node[29].nic.mac1609_4 	SentPackets 	0
scalar IntersectionExampleScenario.node[29].nic.mac1609_4 	SNIRLostPackets 	0
scalar IntersectionExampleScenario.node[29].nic.mac1609_4 	RXTXLostPackets 	0
scalar IntersectionExampleScenario.node[29].nic.mac1609_4 	TotalLostPackets 	0
scalar IntersectionExampleScenario.node[29].nic.mac1609_4 	DroppedPacketsInMac 	0
scalar IntersectionExampleScenario.node[29].nic.mac1609_4 	TooLittleTime 	0
scalar IntersectionExampleScenario.node[29].nic.mac1609_4 	TimesIntoBackoff 	0
scalar IntersectionExampleScenario.node[29].nic.mac1609_4 	SlotsBackoff 	0
scalar IntersectionExampleScenario.node[29].nic.mac1609_4 	NumInternalContention 	0
scalar IntersectionExampleScenario.node[29].nic.mac1609_4 	totalBusyTime 	0
scalar IntersectionExampleScenario.node[29].veinsmobility 	startTime 	104.5
scalar IntersectionExampleScenario.node[29].veinsmobility 	totalTime 	67.5
scalar IntersectionExampleScenario.node[29].veinsmobility 	stopTime 	172.25
scalar IntersectionExampleScenario.node[29].veinsmobility 	minSpeed 	0
scalar IntersectionExampleScenario.node[29].veinsmobility 	maxSpeed 	15.875
scalar IntersectionExampleScenario.node[29].veinsmobility 	totalDistance 	545.340872778
scalar IntersectionExampleScenario.node[29].veinsmobility 	totalCO2Emission 	162.12218340769
scalar IntersectionExampleScenario.node[39].appl 	VehicleRemoved 	0
scalar IntersectionExampleScenario.node[39].appl 	ArrivedAtDest 	1
scalar IntersectionExampleScenario.node[39].appl 	IntersectionEnterTime 	132.25
scalar IntersectionExampleScenario.node[39].appl 	IntersectionExitTime 	158.59646886654
scalar IntersectionExampleScenario.node[39].appl 	NumberOfCollisions 	0
scalar IntersectionExampleScenario.node[39].nic.phy80211p 	busyTime 	0
scalar IntersectionExampleScenario.node[39].nic.mac1609_4 	ReceivedUnicastPackets 	0
scalar IntersectionExampleScenario.node[39].nic.mac1609_4 	ReceivedBroadcasts 	0
scalar IntersectionExampleScenario.node[39].nic.mac1609_4 	SentPackets 	0
scalar IntersectionExampleScenario.node[39].nic.mac1609_4 	SNIRLostPackets 	0
scalar IntersectionExampleScenario.node[39].nic.mac1609_4 	RXTXLostPackets 	0
scalar IntersectionExampleScenario.node[39].nic.mac1609_4 	TotalLostPackets 	0
scalar IntersectionExampleScenario.node[39].nic.mac1609_4 	DroppedPacketsInMac 	0
scalar IntersectionExampleScenario.node[39].nic.mac1609_4 	TooLittleTime 	0
scalar IntersectionExampleScenario.node[39].nic.mac1609_4 	TimesIntoBackoff 	0
scalar IntersectionExampleScenario.node[39].nic.mac1609_4 	SlotsBackoff 	0
scalar IntersectionExampleScenario.node[39].nic.mac1609_4 	NumInternalContention 	0
scalar IntersectionExampleScenario.node[39].nic.mac1609_4 	totalBusyTime 	0
scalar IntersectionExampleScenario.node[39].veinsmobility 	startTime 	132.25
scalar IntersectionExampleScenario.node[39].veinsmobility 	totalTime 	42.75
scalar IntersectionExampleScenario.node[39].veinsmobility 	stopTime 	175.25
scalar IntersectionExampleScenario.node[39].veinsmobility 	minSpeed 	5.6500000953674
scalar IntersectionExampleScenario.node[39].veinsmobility 	maxSpeed 	15.02499961853
scalar IntersectionExampleScenario.node[39].veinsmobility 	totalDistance 	552.53596496582
scalar IntersectionExampleScenario.node[39].veinsmobility 	totalCO2Emission 	130.95003282545
scalar IntersectionExampleScenario.node[40].appl 	VehicleRemoved 	0
scalar IntersectionExampleScenario.node[40].appl 	ArrivedAtDest 	1
scalar IntersectionExampleScenario.node[40].appl 	IntersectionEnterTime 	140.25
scalar IntersectionExampleScenario.node[40].appl 	IntersectionExitTime 	163.05952798936
scalar IntersectionExampleScenario.node[40].appl 	NumberOfCollisions 	0
scalar IntersectionExampleScenario.node[40].nic.phy80211p 	busyTime 	0
scalar IntersectionExampleScenario.node[40].nic.mac1609_4 	ReceivedUnicastPackets 	0
scalar IntersectionExampleScenario.node[40].nic.mac1609_4 	ReceivedBroadcasts 	0
scalar IntersectionExampleScenario.node[40].nic.mac1609_4 	SentPackets 	0
scalar IntersectionExampleScenario.node[40].nic.mac1609_4 	SNIRLostPackets 	0
scalar IntersectionExampleScenario.node[40].nic.mac1609_4 	RXTXLostPackets 	0
scalar IntersectionExampleScenario.node[40].nic.mac1609_4 	TotalLostPackets 	0
scalar IntersectionExampleScenario.node[40].nic.mac1609_4 	DroppedPacketsInMac 	0
scalar IntersectionExampleScenario.node[40].nic.mac1609_4 	TooLittleTime 	0
scalar IntersectionExampleScenario.node[40].nic.mac1609_4 	TimesIntoBackoff 	0
scalar IntersectionExampleScenario.node[40].nic.mac1609_4 	SlotsBackoff 	0
scalar IntersectionExampleScenario.node[40].nic.mac1609_4 	NumInternalContention 	0
scalar IntersectionExampleScenario.node[40].nic.mac1609_4 	totalBusyTime 	0
scalar IntersectionExampleScenario.node[40].veinsmobility 	startTime 	140.25
scalar IntersectionExampleScenario.node[40].veinsmobility 	totalTime 	38.5
scalar IntersectionExampleScenario.node[40].veinsmobility 	stopTime 	179
scalar IntersectionExampleScenario.node[40].veinsmobility 	minSpeed 	5.6500000953674
scalar IntersectionExampleScenario.node[40].veinsmobility 	maxSpeed 	16.045482635498
scalar IntersectionExampleScenario.node[40].veinsmobility 	totalDistance 	554.43101501465
scalar IntersectionExampleScenario.node[40].veinsmobility 	totalCO2Emission 	126.87825258701
scalar IntersectionExampleScenario.node[35].appl 	VehicleRemoved 	0
scalar IntersectionExampleScenario.node[35].appl 	ArrivedAtDest 	1
scalar IntersectionExampleScenario.node[35].appl 	IntersectionEnterTime 	126.25
scalar IntersectionExampleScenario.node[35].appl 	IntersectionExitTime 	170.30893635395
scalar IntersectionExampleScenario.node[35].appl 	NumberOfCollisions 	0
scalar IntersectionExampleScenario.node[35].nic.phy80211p 	busyTime 	0
scalar IntersectionExampleScenario.node[35].nic.mac1609_4 	ReceivedUnicastPackets 	0
scalar IntersectionExampleScenario.node[35].nic.mac1609_4 	ReceivedBroadcasts 	0
scalar IntersectionExampleScenario.node[35].nic.mac1609_4 	SentPackets 	0
scalar IntersectionExampleScenario.node[35].nic.mac1609_4 	SNIRLostPackets 	0
scalar IntersectionExampleScenario.node[35].nic.mac1609_4 	RXTXLostPackets 	0
scalar IntersectionExampleScenario.node[35].nic.mac1609_4 	TotalLostPackets 	0
scalar IntersectionExampleScenario.node[35].nic.mac1609_4 	DroppedPacketsInMac 	0
scalar IntersectionExampleScenario.node[35].nic.mac1609_4 	TooLittleTime 	0
scalar IntersectionExampleScenario.node[35].nic.mac1609_4 	TimesIntoBackoff 	0
scalar IntersectionExampleScenario.node[35].nic.mac1609_4 	SlotsBackoff 	0
scalar IntersectionExampleScenario.node[35].nic.mac1609_4 	NumInternalContention 	0
scalar IntersectionExampleScenario.node[35].nic.mac1609_4 	totalBusyTime 	0
scalar IntersectionExampleScenario.node[35].veinsmobility 	startTime 	126.25
scalar IntersectionExampleScenario.node[35].veinsmobility 	totalTime 	60.5
scalar IntersectionExampleScenario.node[35].veinsmobility 	stopTime 	187
scalar IntersectionExampleScenario.node[35].veinsmobility 	minSpeed 	0
scalar IntersectionExampleScenario.node[35].veinsmobility 	maxSpeed 	15.375
scalar IntersectionExampleScenario.node[35].veinsmobility 	totalDistance 	551.34156908145
scalar IntersectionExampleScenario.node[35].veinsmobility 	totalCO2Emission 	149.76046434366
scalar IntersectionExampleScenario.node[42].appl 	VehicleRemoved 	0
scalar IntersectionExampleScenario.node[42].appl 	ArrivedAtDest 	1
scalar IntersectionExampleScenario.node[42].appl 	IntersectionEnterTime 	148
scalar IntersectionExampleScenario.node[42].appl 	IntersectionExitTime 	173.28767795151
scalar IntersectionExampleScenario.node[42].appl 	NumberOfCollisions 	0
scalar IntersectionExampleScenario.node[42].nic.phy80211p 	busyTime 	0
scalar IntersectionExampleScenario.node[42].nic.mac1609_4 	ReceivedUnicastPackets 	0
scalar IntersectionExampleScenario.node[42].nic.mac1609_4 	ReceivedBroadcasts 	0
scalar IntersectionExampleScenario.node[42].nic.mac1609_4 	SentPackets 	0
scalar IntersectionExampleScenario.node[42].nic.mac1609_4 	SNIRLostPackets 	0
scalar IntersectionExampleScenario.node[42].nic.mac1609_4 	RXTXLostPackets 	0
scalar IntersectionExampleScenario.node[42].nic.mac1609_4 	TotalLostPackets 	0
scalar IntersectionExampleScenario.node[42].nic.mac1609_4 	DroppedPacketsInMac 	0
scalar IntersectionExampleScenario.node[42].nic.mac1609_4 	TooLittleTime 	0
scalar IntersectionExampleScenario.node[42].nic.mac1609_4 	TimesIntoBackoff 	0
[...]
scalar IntersectionExampleScenario.node[556].veinsmobility 	totalDistance 	295.19588470459
scalar IntersectionExampleScenario.node[556].veinsmobility 	totalCO2Emission 	70.567170777174
scalar IntersectionExampleScenario.node[557].appl 	VehicleRemoved 	0
scalar IntersectionExampleScenario.node[557].appl 	ArrivedAtDest 	0
scalar IntersectionExampleScenario.node[557].appl 	IntersectionEnterTime 	1766.5
scalar IntersectionExampleScenario.node[557].appl 	IntersectionExitTime 	1788.8518834515
scalar IntersectionExampleScenario.node[557].appl 	NumberOfCollisions 	0
scalar IntersectionExampleScenario.node[557].nic.phy80211p 	busyTime 	0
scalar IntersectionExampleScenario.node[557].nic.mac1609_4 	ReceivedUnicastPackets 	0
scalar IntersectionExampleScenario.node[557].nic.mac1609_4 	ReceivedBroadcasts 	0
scalar IntersectionExampleScenario.node[557].nic.mac1609_4 	SentPackets 	0
scalar IntersectionExampleScenario.node[557].nic.mac1609_4 	SNIRLostPackets 	0
scalar IntersectionExampleScenario.node[557].nic.mac1609_4 	RXTXLostPackets 	0
scalar IntersectionExampleScenario.node[557].nic.mac1609_4 	TotalLostPackets 	0
scalar IntersectionExampleScenario.node[557].nic.mac1609_4 	DroppedPacketsInMac 	0
scalar IntersectionExampleScenario.node[557].nic.mac1609_4 	TooLittleTime 	0
scalar IntersectionExampleScenario.node[557].nic.mac1609_4 	TimesIntoBackoff 	0
scalar IntersectionExampleScenario.node[557].nic.mac1609_4 	SlotsBackoff 	0
scalar IntersectionExampleScenario.node[557].nic.mac1609_4 	NumInternalContention 	0
scalar IntersectionExampleScenario.node[557].nic.mac1609_4 	totalBusyTime 	0
scalar IntersectionExampleScenario.node[557].veinsmobility 	startTime 	1766.5
scalar IntersectionExampleScenario.node[557].veinsmobility 	totalTime 	33.5
scalar IntersectionExampleScenario.node[557].veinsmobility 	stopTime 	1800
scalar IntersectionExampleScenario.node[557].veinsmobility 	minSpeed 	5.6500000953674
scalar IntersectionExampleScenario.node[557].veinsmobility 	maxSpeed 	17.125
scalar IntersectionExampleScenario.node[557].veinsmobility 	totalDistance 	472.61824696584
scalar IntersectionExampleScenario.node[557].veinsmobility 	totalCO2Emission 	126.19269034242
scalar IntersectionExampleScenario.node[558].appl 	VehicleRemoved 	0
scalar IntersectionExampleScenario.node[558].appl 	ArrivedAtDest 	0
scalar IntersectionExampleScenario.node[558].appl 	IntersectionEnterTime 	1769.25
scalar IntersectionExampleScenario.node[558].appl 	IntersectionExitTime 	-1
scalar IntersectionExampleScenario.node[558].appl 	NumberOfCollisions 	0
scalar IntersectionExampleScenario.node[558].nic.phy80211p 	busyTime 	0
scalar IntersectionExampleScenario.node[558].nic.mac1609_4 	ReceivedUnicastPackets 	0
scalar IntersectionExampleScenario.node[558].nic.mac1609_4 	ReceivedBroadcasts 	0
scalar IntersectionExampleScenario.node[558].nic.mac1609_4 	SentPackets 	0
scalar IntersectionExampleScenario.node[558].nic.mac1609_4 	SNIRLostPackets 	0
scalar IntersectionExampleScenario.node[558].nic.mac1609_4 	RXTXLostPackets 	0
scalar IntersectionExampleScenario.node[558].nic.mac1609_4 	TotalLostPackets 	0
scalar IntersectionExampleScenario.node[558].nic.mac1609_4 	DroppedPacketsInMac 	0
scalar IntersectionExampleScenario.node[558].nic.mac1609_4 	TooLittleTime 	0
scalar IntersectionExampleScenario.node[558].nic.mac1609_4 	TimesIntoBackoff 	0
scalar IntersectionExampleScenario.node[558].nic.mac1609_4 	SlotsBackoff 	0
scalar IntersectionExampleScenario.node[558].nic.mac1609_4 	NumInternalContention 	0
scalar IntersectionExampleScenario.node[558].nic.mac1609_4 	totalBusyTime 	0
scalar IntersectionExampleScenario.node[558].veinsmobility 	startTime 	1769.25
scalar IntersectionExampleScenario.node[558].veinsmobility 	totalTime 	30.75
scalar IntersectionExampleScenario.node[558].veinsmobility 	stopTime 	1800
scalar IntersectionExampleScenario.node[558].veinsmobility 	minSpeed 	0
scalar IntersectionExampleScenario.node[558].veinsmobility 	maxSpeed 	15.02499961853
scalar IntersectionExampleScenario.node[558].veinsmobility 	totalDistance 	287.42190551758
scalar IntersectionExampleScenario.node[558].veinsmobility 	totalCO2Emission 	72.905377295363
scalar IntersectionExampleScenario.node[559].appl 	VehicleRemoved 	0
scalar IntersectionExampleScenario.node[559].appl 	ArrivedAtDest 	0
scalar IntersectionExampleScenario.node[559].appl 	IntersectionEnterTime 	1771.25
scalar IntersectionExampleScenario.node[559].appl 	IntersectionExitTime 	-1
scalar IntersectionExampleScenario.node[559].appl 	NumberOfCollisions 	0
scalar IntersectionExampleScenario.node[559].nic.phy80211p 	busyTime 	0
scalar IntersectionExampleScenario.node[559].nic.mac1609_4 	ReceivedUnicastPackets 	0
scalar IntersectionExampleScenario.node[559].nic.mac1609_4 	ReceivedBroadcasts 	0
scalar IntersectionExampleScenario.node[559].nic.mac1609_4 	SentPackets 	0
scalar IntersectionExampleScenario.node[559].nic.mac1609_4 	SNIRLostPackets 	0
scalar IntersectionExampleScenario.node[559].nic.mac1609_4 	RXTXLostPackets 	0
scalar IntersectionExampleScenario.node[559].nic.mac1609_4 	TotalLostPackets 	0
scalar IntersectionExampleScenario.node[559].nic.mac1609_4 	DroppedPacketsInMac 	0
scalar IntersectionExampleScenario.node[559].nic.mac1609_4 	TooLittleTime 	0
scalar IntersectionExampleScenario.node[559].nic.mac1609_4 	TimesIntoBackoff 	0
scalar IntersectionExampleScenario.node[559].nic.mac1609_4 	SlotsBackoff 	0
scalar IntersectionExampleScenario.node[559].nic.mac1609_4 	NumInternalContention 	0
scalar IntersectionExampleScenario.node[559].nic.mac1609_4 	totalBusyTime 	0
scalar IntersectionExampleScenario.node[559].veinsmobility 	startTime 	1771.25
scalar IntersectionExampleScenario.node[559].veinsmobility 	totalTime 	28.75
scalar IntersectionExampleScenario.node[559].veinsmobility 	stopTime 	1800
scalar IntersectionExampleScenario.node[559].veinsmobility 	minSpeed 	0
scalar IntersectionExampleScenario.node[559].veinsmobility 	maxSpeed 	15.64999961853
scalar IntersectionExampleScenario.node[559].veinsmobility 	totalDistance 	287.42190551758
scalar IntersectionExampleScenario.node[559].veinsmobility 	totalCO2Emission 	72.962707665416
scalar IntersectionExampleScenario.node[560].appl 	VehicleRemoved 	0
scalar IntersectionExampleScenario.node[560].appl 	ArrivedAtDest 	0
scalar IntersectionExampleScenario.node[560].appl 	IntersectionEnterTime 	1773.5
scalar IntersectionExampleScenario.node[560].appl 	IntersectionExitTime 	-1
scalar IntersectionExampleScenario.node[560].appl 	NumberOfCollisions 	0
scalar IntersectionExampleScenario.node[560].nic.phy80211p 	busyTime 	0
scalar IntersectionExampleScenario.node[560].nic.mac1609_4 	ReceivedUnicastPackets 	0
scalar IntersectionExampleScenario.node[560].nic.mac1609_4 	ReceivedBroadcasts 	0
scalar IntersectionExampleScenario.node[560].nic.mac1609_4 	SentPackets 	0
scalar IntersectionExampleScenario.node[560].nic.mac1609_4 	SNIRLostPackets 	0
scalar IntersectionExampleScenario.node[560].nic.mac1609_4 	RXTXLostPackets 	0
scalar IntersectionExampleScenario.node[560].nic.mac1609_4 	TotalLostPackets 	0
scalar IntersectionExampleScenario.node[560].nic.mac1609_4 	DroppedPacketsInMac 	0
scalar IntersectionExampleScenario.node[560].nic.mac1609_4 	TooLittleTime 	0
scalar IntersectionExampleScenario.node[560].nic.mac1609_4 	TimesIntoBackoff 	0
scalar IntersectionExampleScenario.node[560].nic.mac1609_4 	SlotsBackoff 	0
scalar IntersectionExampleScenario.node[560].nic.mac1609_4 	NumInternalContention 	0
scalar IntersectionExampleScenario.node[560].nic.mac1609_4 	totalBusyTime 	0
scalar IntersectionExampleScenario.node[560].veinsmobility 	startTime 	1773.5
scalar IntersectionExampleScenario.node[560].veinsmobility 	totalTime 	26.5
scalar IntersectionExampleScenario.node[560].veinsmobility 	stopTime 	1800
scalar IntersectionExampleScenario.node[560].veinsmobility 	minSpeed 	0
scalar IntersectionExampleScenario.node[560].veinsmobility 	maxSpeed 	15.387307167053
scalar IntersectionExampleScenario.node[560].veinsmobility 	totalDistance 	284.50738525391
scalar IntersectionExampleScenario.node[560].veinsmobility 	totalCO2Emission 	67.771417817204
scalar IntersectionExampleScenario.node[561].appl 	VehicleRemoved 	0
scalar IntersectionExampleScenario.node[561].appl 	ArrivedAtDest 	0
scalar IntersectionExampleScenario.node[561].appl 	IntersectionEnterTime 	1774.5
scalar IntersectionExampleScenario.node[561].appl 	IntersectionExitTime 	-1
scalar IntersectionExampleScenario.node[561].appl 	NumberOfCollisions 	0
scalar IntersectionExampleScenario.node[561].nic.phy80211p 	busyTime 	0
scalar IntersectionExampleScenario.node[561].nic.mac1609_4 	ReceivedUnicastPackets 	0
scalar IntersectionExampleScenario.node[561].nic.mac1609_4 	ReceivedBroadcasts 	0
scalar IntersectionExampleScenario.node[561].nic.mac1609_4 	SentPackets 	0
scalar IntersectionExampleScenario.node[561].nic.mac1609_4 	SNIRLostPackets 	0
scalar IntersectionExampleScenario.node[561].nic.mac1609_4 	RXTXLostPackets 	0
scalar IntersectionExampleScenario.node[561].nic.mac1609_4 	TotalLostPackets 	0
scalar IntersectionExampleScenario.node[561].nic.mac1609_4 	DroppedPacketsInMac 	0
scalar IntersectionExampleScenario.node[561].nic.mac1609_4 	TooLittleTime 	0
scalar IntersectionExampleScenario.node[561].nic.mac1609_4 	TimesIntoBackoff 	0
scalar IntersectionExampleScenario.node[561].nic.mac1609_4 	SlotsBackoff 	0
scalar IntersectionExampleScenario.node[561].nic.mac1609_4 	NumInternalContention 	0
scalar IntersectionExampleScenario.node[561].nic.mac1609_4 	totalBusyTime 	0
scalar IntersectionExampleScenario.node[561].veinsmobility 	startTime 	1774.5
scalar IntersectionExampleScenario.node[561].veinsmobility 	totalTime 	25.5
scalar IntersectionExampleScenario.node[561].veinsmobility 	stopTime 	1800
scalar IntersectionExampleScenario.node[561].veinsmobility 	minSpeed 	1.6242687702179
scalar IntersectionExampleScenario.node[561].veinsmobility 	maxSpeed 	14.97371673584
scalar IntersectionExampleScenario.node[561].veinsmobility 	totalDistance 	255.94922637939
scalar IntersectionExampleScenario.node[561].veinsmobility 	totalCO2Emission 	60.557840299444
scalar IntersectionExampleScenario.node[562].appl 	VehicleRemoved 	0
scalar IntersectionExampleScenario.node[562].appl 	ArrivedAtDest 	0
scalar IntersectionExampleScenario.node[562].appl 	IntersectionEnterTime 	1779.5
scalar IntersectionExampleScenario.node[562].appl 	IntersectionExitTime 	-1
scalar IntersectionExampleScenario.node[562].appl 	NumberOfCollisions 	0
scalar IntersectionExampleScenario.node[562].nic.phy80211p 	busyTime 	0
scalar IntersectionExampleScenario.node[562].nic.mac1609_4 	ReceivedUnicastPackets 	0
scalar IntersectionExampleScenario.node[562].nic.mac1609_4 	ReceivedBroadcasts 	0
scalar IntersectionExampleScenario.node[562].nic.mac1609_4 	SentPackets 	0
scalar IntersectionExampleScenario.node[562].nic.mac1609_4 	SNIRLostPackets 	0
scalar IntersectionExampleScenario.node[562].nic.mac1609_4 	RXTXLostPackets 	0
scalar IntersectionExampleScenario.node[562].nic.mac1609_4 	TotalLostPackets 	0
scalar IntersectionExampleScenario.node[562].nic.mac1609_4 	DroppedPacketsInMac 	0
scalar IntersectionExampleScenario.node[562].nic.mac1609_4 	TooLittleTime 	0
scalar IntersectionExampleScenario.node[562].nic.mac1609_4 	TimesIntoBackoff 	0
scalar IntersectionExampleScenario.node[562].nic.mac1609_4 	SlotsBackoff 	0
scalar IntersectionExampleScenario.node[562].nic.mac1609_4 	NumInternalContention 	0
scalar IntersectionExampleScenario.node[562].nic.mac1609_4 	totalBusyTime 	0
scalar IntersectionExampleScenario.node[562].veinsmobility 	startTime 	1779.5
scalar IntersectionExampleScenario.node[562].veinsmobility 	totalTime 	20.5
scalar IntersectionExampleScenario.node[562].veinsmobility 	stopTime 	1800
scalar IntersectionExampleScenario.node[562].veinsmobility 	minSpeed 	5.5817685127258
scalar IntersectionExampleScenario.node[562].veinsmobility 	maxSpeed 	15.99144744873
scalar IntersectionExampleScenario.node[562].veinsmobility 	totalDistance 	239.46173858643
scalar IntersectionExampleScenario.node[562].veinsmobility 	totalCO2Emission 	59.176315639118
scalar IntersectionExampleScenario.node[563].appl 	VehicleRemoved 	0
scalar IntersectionExampleScenario.node[563].appl 	ArrivedAtDest 	0
scalar IntersectionExampleScenario.node[563].appl 	IntersectionEnterTime 	1780.75
scalar IntersectionExampleScenario.node[563].appl 	IntersectionExitTime 	-1
scalar IntersectionExampleScenario.node[563].appl 	NumberOfCollisions 	0
scalar IntersectionExampleScenario.node[563].nic.phy80211p 	busyTime 	0
scalar IntersectionExampleScenario.node[563].nic.mac1609_4 	ReceivedUnicastPackets 	0
scalar IntersectionExampleScenario.node[563].nic.mac1609_4 	ReceivedBroadcasts 	0
scalar IntersectionExampleScenario.node[563].nic.mac1609_4 	SentPackets 	0
scalar IntersectionExampleScenario.node[563].nic.mac1609_4 	SNIRLostPackets 	0
scalar IntersectionExampleScenario.node[563].nic.mac1609_4 	RXTXLostPackets 	0
scalar IntersectionExampleScenario.node[563].nic.mac1609_4 	TotalLostPackets 	0
scalar IntersectionExampleScenario.node[563].nic.mac1609_4 	DroppedPacketsInMac 	0
scalar IntersectionExampleScenario.node[563].nic.mac1609_4 	TooLittleTime 	0
scalar IntersectionExampleScenario.node[563].nic.mac1609_4 	TimesIntoBackoff 	0
scalar IntersectionExampleScenario.node[563].nic.mac1609_4 	SlotsBackoff 	0
scalar IntersectionExampleScenario.node[563].nic.mac1609_4 	NumInternalContention 	0
scalar IntersectionExampleScenario.node[563].nic.mac1609_4 	totalBusyTime 	0
scalar IntersectionExampleScenario.node[563].veinsmobility 	startTime 	1780.75
scalar IntersectionExampleScenario.node[563].veinsmobility 	totalTime 	19.25
scalar IntersectionExampleScenario.node[563].veinsmobility 	stopTime 	1800
scalar IntersectionExampleScenario.node[563].veinsmobility 	minSpeed 	5.6500000953674
scalar IntersectionExampleScenario.node[563].veinsmobility 	maxSpeed 	15.02499961853
scalar IntersectionExampleScenario.node[563].veinsmobility 	totalDistance 	241.45127105713
scalar IntersectionExampleScenario.node[563].veinsmobility 	totalCO2Emission 	56.429006071983
scalar IntersectionExampleScenario.node[564].appl 	VehicleRemoved 	0
scalar IntersectionExampleScenario.node[564].appl 	ArrivedAtDest 	0
scalar IntersectionExampleScenario.node[564].appl 	IntersectionEnterTime 	1783.5
scalar IntersectionExampleScenario.node[564].appl 	IntersectionExitTime 	-1
scalar IntersectionExampleScenario.node[564].appl 	NumberOfCollisions 	0
scalar IntersectionExampleScenario.node[564].nic.phy80211p 	busyTime 	0
scalar IntersectionExampleScenario.node[564].nic.mac1609_4 	ReceivedUnicastPackets 	0
scalar IntersectionExampleScenario.node[564].nic.mac1609_4 	ReceivedBroadcasts 	0
scalar IntersectionExampleScenario.node[564].nic.mac1609_4 	SentPackets 	0
scalar IntersectionExampleScenario.node[564].nic.mac1609_4 	SNIRLostPackets 	0
scalar IntersectionExampleScenario.node[564].nic.mac1609_4 	RXTXLostPackets 	0
scalar IntersectionExampleScenario.node[564].nic.mac1609_4 	TotalLostPackets 	0
scalar IntersectionExampleScenario.node[564].nic.mac1609_4 	DroppedPacketsInMac 	0
scalar IntersectionExampleScenario.node[564].nic.mac1609_4 	TooLittleTime 	0
scalar IntersectionExampleScenario.node[564].nic.mac1609_4 	TimesIntoBackoff 	0
scalar IntersectionExampleScenario.node[564].nic.mac1609_4 	SlotsBackoff 	0
scalar IntersectionExampleScenario.node[564].nic.mac1609_4 	NumInternalContention 	0
scalar IntersectionExampleScenario.node[564].nic.mac1609_4 	totalBusyTime 	0
scalar IntersectionExampleScenario.node[564].veinsmobility 	startTime 	1783.5
scalar IntersectionExampleScenario.node[564].veinsmobility 	totalTime 	16.5
scalar IntersectionExampleScenario.node[564].veinsmobility 	stopTime 	1800
scalar IntersectionExampleScenario.node[564].veinsmobility 	minSpeed 	5.6500000953674
scalar IntersectionExampleScenario.node[564].veinsmobility 	maxSpeed 	15.02499961853
scalar IntersectionExampleScenario.node[564].veinsmobility 	totalDistance 	227.8909072876
scalar IntersectionExampleScenario.node[564].veinsmobility 	totalCO2Emission 	57.493310100649
scalar IntersectionExampleScenario.node[565].appl 	VehicleRemoved 	0
scalar IntersectionExampleScenario.node[565].appl 	ArrivedAtDest 	0
scalar IntersectionExampleScenario.node[565].appl 	IntersectionEnterTime 	1794
scalar IntersectionExampleScenario.node[565].appl 	IntersectionExitTime 	-1
scalar IntersectionExampleScenario.node[565].appl 	NumberOfCollisions 	0
scalar IntersectionExampleScenario.node[565].nic.phy80211p 	busyTime 	0
scalar IntersectionExampleScenario.node[565].nic.mac1609_4 	ReceivedUnicastPackets 	0
scalar IntersectionExampleScenario.node[565].nic.mac1609_4 	ReceivedBroadcasts 	0
scalar IntersectionExampleScenario.node[565].nic.mac1609_4 	SentPackets 	0
scalar IntersectionExampleScenario.node[565].nic.mac1609_4 	SNIRLostPackets 	0
scalar IntersectionExampleScenario.node[565].nic.mac1609_4 	RXTXLostPackets 	0
scalar IntersectionExampleScenario.node[565].nic.mac1609_4 	TotalLostPackets 	0
scalar IntersectionExampleScenario.node[565].nic.mac1609_4 	DroppedPacketsInMac 	0
scalar IntersectionExampleScenario.node[565].nic.mac1609_4 	TooLittleTime 	0
scalar IntersectionExampleScenario.node[565].nic.mac1609_4 	TimesIntoBackoff 	0
scalar IntersectionExampleScenario.node[565].nic.mac1609_4 	SlotsBackoff 	0
scalar IntersectionExampleScenario.node[565].nic.mac1609_4 	NumInternalContention 	0
scalar IntersectionExampleScenario.node[565].nic.mac1609_4 	totalBusyTime 	0
scalar IntersectionExampleScenario.node[565].veinsmobility 	startTime 	1794
scalar IntersectionExampleScenario.node[565].veinsmobility 	totalTime 	6
scalar IntersectionExampleScenario.node[565].veinsmobility 	stopTime 	1800
scalar IntersectionExampleScenario.node[565].veinsmobility 	minSpeed 	5.6500000953674
scalar IntersectionExampleScenario.node[565].veinsmobility 	maxSpeed 	15.64999961853
scalar IntersectionExampleScenario.node[565].veinsmobility 	totalDistance 	71.287055969238
scalar IntersectionExampleScenario.node[565].veinsmobility 	totalCO2Emission 	37.334988416214
scalar IntersectionExampleScenario.node[566].appl 	VehicleRemoved 	0
scalar IntersectionExampleScenario.node[566].appl 	ArrivedAtDest 	0
scalar IntersectionExampleScenario.node[566].appl 	IntersectionEnterTime 	1798.75
scalar IntersectionExampleScenario.node[566].appl 	IntersectionExitTime 	-1
scalar IntersectionExampleScenario.node[566].appl 	NumberOfCollisions 	0
scalar IntersectionExampleScenario.node[566].nic.phy80211p 	busyTime 	0
scalar IntersectionExampleScenario.node[566].nic.mac1609_4 	ReceivedUnicastPackets 	0
scalar IntersectionExampleScenario.node[566].nic.mac1609_4 	ReceivedBroadcasts 	0
scalar IntersectionExampleScenario.node[566].nic.mac1609_4 	SentPackets 	0
scalar IntersectionExampleScenario.node[566].nic.mac1609_4 	SNIRLostPackets 	0
scalar IntersectionExampleScenario.node[566].nic.mac1609_4 	RXTXLostPackets 	0
scalar IntersectionExampleScenario.node[566].nic.mac1609_4 	TotalLostPackets 	0
scalar IntersectionExampleScenario.node[566].nic.mac1609_4 	DroppedPacketsInMac 	0
scalar IntersectionExampleScenario.node[566].nic.mac1609_4 	TooLittleTime 	0
scalar IntersectionExampleScenario.node[566].nic.mac1609_4 	TimesIntoBackoff 	0
scalar IntersectionExampleScenario.node[566].nic.mac1609_4 	SlotsBackoff 	0
scalar IntersectionExampleScenario.node[566].nic.mac1609_4 	NumInternalContention 	0
scalar IntersectionExampleScenario.node[566].nic.mac1609_4 	totalBusyTime 	0
scalar IntersectionExampleScenario.node[566].veinsmobility 	startTime 	1798.75
scalar IntersectionExampleScenario.node[566].veinsmobility 	totalTime 	1.25
scalar IntersectionExampleScenario.node[566].veinsmobility 	stopTime 	1800
scalar IntersectionExampleScenario.node[566].veinsmobility 	minSpeed 	5.6500000953674
scalar IntersectionExampleScenario.node[566].veinsmobility 	maxSpeed 	8.1499996185303
scalar IntersectionExampleScenario.node[566].veinsmobility 	totalDistance 	8.2343673706055
scalar IntersectionExampleScenario.node[566].veinsmobility 	totalCO2Emission 	5.8390974258108
