version 2
run nodebug-23-20200605-21:37:33-20324
attr configname nodebug
attr datetime 20200605-21:37:33
attr experiment nodebug
attr inifile omnetpp.ini
attr iterationvars ""
attr iterationvars2 $repetition=23
attr measurement ""
attr network "\"org.car2x.veins.modules.application.ExtTraCIScenarioManagerLaunchd.IntersectionExampleScenario\""
attr processid 20324
attr repetition 23
attr replication #23
attr resultdir results
attr runnumber 23
attr seedset 23
param **.coreDebug false
param **.debug false
param *.**.nic.mac1609_4.bitrate 18Mbps
param *.**.nic.mac1609_4.txPower 20mW
param *.**.nic.mac1609_4.useServiceChannel false
param *.**.nic.phy80211p.analogueModels "xmldoc(\"config.xml\")"
param *.**.nic.phy80211p.decider "xmldoc(\"config.xml\")"
param *.**.nic.phy80211p.sensitivity -89dBm
param *.**.nic.phy80211p.thermalNoise -110dBm
param *.**.nic.phy80211p.usePropagationDelay true
param *.**.nic.phy80211p.useThermalNoise true
param *.annotations.draw false
param *.connectionManager.alpha 2.0
param *.connectionManager.carrierFrequency "5.890e9 Hz"
param *.connectionManager.pMax 20mW
param *.connectionManager.sat -89dBm
param *.connectionManager.sendDirect true
param *.manager.autoShutdown true
param *.manager.host "\"localhost\""
param *.manager.launchConfig "xmldoc(\"paramics.launchd.xml\")"
param *.manager.margin 25
param *.manager.moduleDisplayString "\"\""
param *.manager.moduleName "\"node\""
param *.manager.moduleType "\"org.car2x.veins.nodes.Car\""
param *.manager.port 9999
param *.manager.updateInterval 250ms
param *.node[*0].veinsmobility.accidentCount 0
param *.node[*0].veinsmobility.accidentDuration 30s
param *.node[*0].veinsmobility.accidentStart 75s
param *.node[*].appl.LiderSelectZoneRadio 55.0
param *.node[*].appl.ShareDataZoneRadio 110.0
param *.node[*].appl.TiempoSemaforo 30.0
param *.node[*].appl.beaconInterval 1s
param *.node[*].appl.beaconPriority 3
param *.node[*].appl.dataOnSch false
param *.node[*].appl.dataPriority 2
param *.node[*].appl.debug false
param *.node[*].appl.headerLength "256 bit"
param *.node[*].appl.maxOffset 0.005s
param *.node[*].appl.sendBeacons false
param *.node[*].appl.sendData true
param *.node[*].applType "\"Dummy\""
param *.node[*].mobilityType "\"TraCIMobility\""
param *.node[*].mobilityType.debug true
param *.node[*].veinsmobility.x 0
param *.node[*].veinsmobility.y 0
param *.node[*].veinsmobility.z 1.895
param *.node[*].veinsmobilityType "\"org.car2x.veins.modules.mobility.traci.TraCIMobility\""
param *.node[*].veinsmobilityType.debug true
param *.playgroundSizeX 8500m
param *.playgroundSizeY 8500m
param *.playgroundSizeZ 50m
param *.world.use2D false
param *.world.useTorus false

scalar IntersectionExampleScenario.node[4].appl 	VehicleRemoved 	0
scalar IntersectionExampleScenario.node[4].appl 	ArrivedAtDest 	1
scalar IntersectionExampleScenario.node[4].appl 	IntersectionEnterTime 	7
scalar IntersectionExampleScenario.node[4].appl 	IntersectionExitTime 	30.785991804703
scalar IntersectionExampleScenario.node[4].appl 	NumberOfCollisions 	0
scalar IntersectionExampleScenario.node[4].nic.phy80211p 	busyTime 	0
scalar IntersectionExampleScenario.node[4].nic.mac1609_4 	ReceivedUnicastPackets 	0
scalar IntersectionExampleScenario.node[4].nic.mac1609_4 	ReceivedBroadcasts 	0
scalar IntersectionExampleScenario.node[4].nic.mac1609_4 	SentPackets 	0
scalar IntersectionExampleScenario.node[4].nic.mac1609_4 	SNIRLostPackets 	0
scalar IntersectionExampleScenario.node[4].nic.mac1609_4 	RXTXLostPackets 	0
scalar IntersectionExampleScenario.node[4].nic.mac1609_4 	TotalLostPackets 	0
scalar IntersectionExampleScenario.node[4].nic.mac1609_4 	DroppedPacketsInMac 	0
scalar IntersectionExampleScenario.node[4].nic.mac1609_4 	TooLittleTime 	0
scalar IntersectionExampleScenario.node[4].nic.mac1609_4 	TimesIntoBackoff 	0
scalar IntersectionExampleScenario.node[4].nic.mac1609_4 	SlotsBackoff 	0
scalar IntersectionExampleScenario.node[4].nic.mac1609_4 	NumInternalContention 	0
scalar IntersectionExampleScenario.node[4].nic.mac1609_4 	totalBusyTime 	0
scalar IntersectionExampleScenario.node[4].veinsmobility 	startTime 	7
scalar IntersectionExampleScenario.node[4].veinsmobility 	totalTime 	40.75
scalar IntersectionExampleScenario.node[4].veinsmobility 	stopTime 	48
scalar IntersectionExampleScenario.node[4].veinsmobility 	minSpeed 	5.6500000953674
scalar IntersectionExampleScenario.node[4].veinsmobility 	maxSpeed 	15.25
scalar IntersectionExampleScenario.node[4].veinsmobility 	totalDistance 	542.84172887416
scalar IntersectionExampleScenario.node[4].veinsmobility 	totalCO2Emission 	123.50014188526
scalar IntersectionExampleScenario.node[5].appl 	VehicleRemoved 	0
scalar IntersectionExampleScenario.node[5].appl 	ArrivedAtDest 	1
scalar IntersectionExampleScenario.node[5].appl 	IntersectionEnterTime 	8.75
scalar IntersectionExampleScenario.node[5].appl 	IntersectionExitTime 	33.000066101435
scalar IntersectionExampleScenario.node[5].appl 	NumberOfCollisions 	0
scalar IntersectionExampleScenario.node[5].nic.phy80211p 	busyTime 	0
scalar IntersectionExampleScenario.node[5].nic.mac1609_4 	ReceivedUnicastPackets 	0
scalar IntersectionExampleScenario.node[5].nic.mac1609_4 	ReceivedBroadcasts 	0
scalar IntersectionExampleScenario.node[5].nic.mac1609_4 	SentPackets 	0
scalar IntersectionExampleScenario.node[5].nic.mac1609_4 	SNIRLostPackets 	0
scalar IntersectionExampleScenario.node[5].nic.mac1609_4 	RXTXLostPackets 	0
scalar IntersectionExampleScenario.node[5].nic.mac1609_4 	TotalLostPackets 	0
scalar IntersectionExampleScenario.node[5].nic.mac1609_4 	DroppedPacketsInMac 	0
scalar IntersectionExampleScenario.node[5].nic.mac1609_4 	TooLittleTime 	0
scalar IntersectionExampleScenario.node[5].nic.mac1609_4 	TimesIntoBackoff 	0
scalar IntersectionExampleScenario.node[5].nic.mac1609_4 	SlotsBackoff 	0
scalar IntersectionExampleScenario.node[5].nic.mac1609_4 	NumInternalContention 	0
scalar IntersectionExampleScenario.node[5].nic.mac1609_4 	totalBusyTime 	0
scalar IntersectionExampleScenario.node[5].veinsmobility 	startTime 	8.75
scalar IntersectionExampleScenario.node[5].veinsmobility 	totalTime 	40
scalar IntersectionExampleScenario.node[5].veinsmobility 	stopTime 	49
scalar IntersectionExampleScenario.node[5].veinsmobility 	minSpeed 	5.6500000953674
scalar IntersectionExampleScenario.node[5].veinsmobility 	maxSpeed 	16.125
scalar IntersectionExampleScenario.node[5].veinsmobility 	totalDistance 	573.94921875
scalar IntersectionExampleScenario.node[5].veinsmobility 	totalCO2Emission 	130.3888808556
scalar IntersectionExampleScenario.node[0].appl 	VehicleRemoved 	0
scalar IntersectionExampleScenario.node[0].appl 	ArrivedAtDest 	1
scalar IntersectionExampleScenario.node[0].appl 	IntersectionEnterTime 	3.25
scalar IntersectionExampleScenario.node[0].appl 	IntersectionExitTime 	35.285299480864
scalar IntersectionExampleScenario.node[0].appl 	NumberOfCollisions 	0
scalar IntersectionExampleScenario.node[0].nic.phy80211p 	busyTime 	0
scalar IntersectionExampleScenario.node[0].nic.mac1609_4 	ReceivedUnicastPackets 	0
scalar IntersectionExampleScenario.node[0].nic.mac1609_4 	ReceivedBroadcasts 	0
scalar IntersectionExampleScenario.node[0].nic.mac1609_4 	SentPackets 	0
scalar IntersectionExampleScenario.node[0].nic.mac1609_4 	SNIRLostPackets 	0
scalar IntersectionExampleScenario.node[0].nic.mac1609_4 	RXTXLostPackets 	0
scalar IntersectionExampleScenario.node[0].nic.mac1609_4 	TotalLostPackets 	0
scalar IntersectionExampleScenario.node[0].nic.mac1609_4 	DroppedPacketsInMac 	0
scalar IntersectionExampleScenario.node[0].nic.mac1609_4 	TooLittleTime 	0
scalar IntersectionExampleScenario.node[0].nic.mac1609_4 	TimesIntoBackoff 	0
scalar IntersectionExampleScenario.node[0].nic.mac1609_4 	SlotsBackoff 	0
scalar IntersectionExampleScenario.node[0].nic.mac1609_4 	NumInternalContention 	0
scalar IntersectionExampleScenario.node[0].nic.mac1609_4 	totalBusyTime 	0
scalar IntersectionExampleScenario.node[0].veinsmobility 	startTime 	3.25
scalar IntersectionExampleScenario.node[0].veinsmobility 	totalTime 	48.25
scalar IntersectionExampleScenario.node[0].veinsmobility 	stopTime 	51.75
scalar IntersectionExampleScenario.node[0].veinsmobility 	minSpeed 	0
scalar IntersectionExampleScenario.node[0].veinsmobility 	maxSpeed 	15.375
scalar IntersectionExampleScenario.node[0].veinsmobility 	totalDistance 	549.86317552676
scalar IntersectionExampleScenario.node[0].veinsmobility 	totalCO2Emission 	138.70586327946
scalar IntersectionExampleScenario.node[3].appl 	VehicleRemoved 	0
scalar IntersectionExampleScenario.node[3].appl 	ArrivedAtDest 	1
scalar IntersectionExampleScenario.node[3].appl 	IntersectionEnterTime 	6.75
scalar IntersectionExampleScenario.node[3].appl 	IntersectionExitTime 	36.37230336474
scalar IntersectionExampleScenario.node[3].appl 	NumberOfCollisions 	0
scalar IntersectionExampleScenario.node[3].nic.phy80211p 	busyTime 	0
scalar IntersectionExampleScenario.node[3].nic.mac1609_4 	ReceivedUnicastPackets 	0
scalar IntersectionExampleScenario.node[3].nic.mac1609_4 	ReceivedBroadcasts 	0
scalar IntersectionExampleScenario.node[3].nic.mac1609_4 	SentPackets 	0
scalar IntersectionExampleScenario.node[3].nic.mac1609_4 	SNIRLostPackets 	0
scalar IntersectionExampleScenario.node[3].nic.mac1609_4 	RXTXLostPackets 	0
scalar IntersectionExampleScenario.node[3].nic.mac1609_4 	TotalLostPackets 	0
scalar IntersectionExampleScenario.node[3].nic.mac1609_4 	DroppedPacketsInMac 	0
scalar IntersectionExampleScenario.node[3].nic.mac1609_4 	TooLittleTime 	0
scalar IntersectionExampleScenario.node[3].nic.mac1609_4 	TimesIntoBackoff 	0
scalar IntersectionExampleScenario.node[3].nic.mac1609_4 	SlotsBackoff 	0
scalar IntersectionExampleScenario.node[3].nic.mac1609_4 	NumInternalContention 	0
scalar IntersectionExampleScenario.node[3].nic.mac1609_4 	totalBusyTime 	0
scalar IntersectionExampleScenario.node[3].veinsmobility 	startTime 	6.75
scalar IntersectionExampleScenario.node[3].veinsmobility 	totalTime 	46.25
scalar IntersectionExampleScenario.node[3].veinsmobility 	stopTime 	53.25
scalar IntersectionExampleScenario.node[3].veinsmobility 	minSpeed 	0
scalar IntersectionExampleScenario.node[3].veinsmobility 	maxSpeed 	15.02499961853
scalar IntersectionExampleScenario.node[3].veinsmobility 	totalDistance 	542.34281921387
scalar IntersectionExampleScenario.node[3].veinsmobility 	totalCO2Emission 	132.04739432054
scalar IntersectionExampleScenario.node[1].appl 	VehicleRemoved 	0
scalar IntersectionExampleScenario.node[1].appl 	ArrivedAtDest 	1
scalar IntersectionExampleScenario.node[1].appl 	IntersectionEnterTime 	6
scalar IntersectionExampleScenario.node[1].appl 	IntersectionExitTime 	38.549055308278
scalar IntersectionExampleScenario.node[1].appl 	NumberOfCollisions 	0
scalar IntersectionExampleScenario.node[1].nic.phy80211p 	busyTime 	0
scalar IntersectionExampleScenario.node[1].nic.mac1609_4 	ReceivedUnicastPackets 	0
scalar IntersectionExampleScenario.node[1].nic.mac1609_4 	ReceivedBroadcasts 	0
scalar IntersectionExampleScenario.node[1].nic.mac1609_4 	SentPackets 	0
scalar IntersectionExampleScenario.node[1].nic.mac1609_4 	SNIRLostPackets 	0
scalar IntersectionExampleScenario.node[1].nic.mac1609_4 	RXTXLostPackets 	0
scalar IntersectionExampleScenario.node[1].nic.mac1609_4 	TotalLostPackets 	0
scalar IntersectionExampleScenario.node[1].nic.mac1609_4 	DroppedPacketsInMac 	0
scalar IntersectionExampleScenario.node[1].nic.mac1609_4 	TooLittleTime 	0
scalar IntersectionExampleScenario.node[1].nic.mac1609_4 	TimesIntoBackoff 	0
scalar IntersectionExampleScenario.node[1].nic.mac1609_4 	SlotsBackoff 	0
scalar IntersectionExampleScenario.node[1].nic.mac1609_4 	NumInternalContention 	0
scalar IntersectionExampleScenario.node[1].nic.mac1609_4 	totalBusyTime 	0
scalar IntersectionExampleScenario.node[1].veinsmobility 	startTime 	6
scalar IntersectionExampleScenario.node[1].veinsmobility 	totalTime 	48.75
scalar IntersectionExampleScenario.node[1].veinsmobility 	stopTime 	55
scalar IntersectionExampleScenario.node[1].veinsmobility 	minSpeed 	2.6042792797089
scalar IntersectionExampleScenario.node[1].veinsmobility 	maxSpeed 	15.002069473267
scalar IntersectionExampleScenario.node[1].veinsmobility 	totalDistance 	567.51486206055
scalar IntersectionExampleScenario.node[1].veinsmobility 	totalCO2Emission 	143.6660080326
scalar IntersectionExampleScenario.node[2].appl 	VehicleRemoved 	0
scalar IntersectionExampleScenario.node[2].appl 	ArrivedAtDest 	1
scalar IntersectionExampleScenario.node[2].appl 	IntersectionEnterTime 	6.25
scalar IntersectionExampleScenario.node[2].appl 	IntersectionExitTime 	49.360504022014
scalar IntersectionExampleScenario.node[2].appl 	NumberOfCollisions 	0
scalar IntersectionExampleScenario.node[2].nic.phy80211p 	busyTime 	0
scalar IntersectionExampleScenario.node[2].nic.mac1609_4 	ReceivedUnicastPackets 	0
scalar IntersectionExampleScenario.node[2].nic.mac1609_4 	ReceivedBroadcasts 	0
scalar IntersectionExampleScenario.node[2].nic.mac1609_4 	SentPackets 	0
scalar IntersectionExampleScenario.node[2].nic.mac1609_4 	SNIRLostPackets 	0
scalar IntersectionExampleScenario.node[2].nic.mac1609_4 	RXTXLostPackets 	0
scalar IntersectionExampleScenario.node[2].nic.mac1609_4 	TotalLostPackets 	0
scalar IntersectionExampleScenario.node[2].nic.mac1609_4 	DroppedPacketsInMac 	0
scalar IntersectionExampleScenario.node[2].nic.mac1609_4 	TooLittleTime 	0
scalar IntersectionExampleScenario.node[2].nic.mac1609_4 	TimesIntoBackoff 	0
scalar IntersectionExampleScenario.node[2].nic.mac1609_4 	SlotsBackoff 	0
scalar IntersectionExampleScenario.node[2].nic.mac1609_4 	NumInternalContention 	0
scalar IntersectionExampleScenario.node[2].nic.mac1609_4 	totalBusyTime 	0
scalar IntersectionExampleScenario.node[2].veinsmobility 	startTime 	6.25
scalar IntersectionExampleScenario.node[2].veinsmobility 	totalTime 	58.5
scalar IntersectionExampleScenario.node[2].veinsmobility 	stopTime 	65
scalar IntersectionExampleScenario.node[2].veinsmobility 	minSpeed 	0
scalar IntersectionExampleScenario.node[2].veinsmobility 	maxSpeed 	16.27499961853
scalar IntersectionExampleScenario.node[2].veinsmobility 	totalDistance 	551.20803941836
scalar IntersectionExampleScenario.node[2].veinsmobility 	totalCO2Emission 	156.5997714423
scalar IntersectionExampleScenario.node[7].appl 	VehicleRemoved 	0
scalar IntersectionExampleScenario.node[7].appl 	ArrivedAtDest 	1
scalar IntersectionExampleScenario.node[7].appl 	IntersectionEnterTime 	23.5
scalar IntersectionExampleScenario.node[7].appl 	IntersectionExitTime 	51.089731479937
scalar IntersectionExampleScenario.node[7].appl 	NumberOfCollisions 	0
scalar IntersectionExampleScenario.node[7].nic.phy80211p 	busyTime 	0
scalar IntersectionExampleScenario.node[7].nic.mac1609_4 	ReceivedUnicastPackets 	0
scalar IntersectionExampleScenario.node[7].nic.mac1609_4 	ReceivedBroadcasts 	0
scalar IntersectionExampleScenario.node[7].nic.mac1609_4 	SentPackets 	0
scalar IntersectionExampleScenario.node[7].nic.mac1609_4 	SNIRLostPackets 	0
scalar IntersectionExampleScenario.node[7].nic.mac1609_4 	RXTXLostPackets 	0
scalar IntersectionExampleScenario.node[7].nic.mac1609_4 	TotalLostPackets 	0
scalar IntersectionExampleScenario.node[7].nic.mac1609_4 	DroppedPacketsInMac 	0
scalar IntersectionExampleScenario.node[7].nic.mac1609_4 	TooLittleTime 	0
scalar IntersectionExampleScenario.node[7].nic.mac1609_4 	TimesIntoBackoff 	0
scalar IntersectionExampleScenario.node[7].nic.mac1609_4 	SlotsBackoff 	0
scalar IntersectionExampleScenario.node[7].nic.mac1609_4 	NumInternalContention 	0
scalar IntersectionExampleScenario.node[7].nic.mac1609_4 	totalBusyTime 	0
scalar IntersectionExampleScenario.node[7].veinsmobility 	startTime 	23.5
scalar IntersectionExampleScenario.node[7].veinsmobility 	totalTime 	43.25
scalar IntersectionExampleScenario.node[7].veinsmobility 	stopTime 	67
scalar IntersectionExampleScenario.node[7].veinsmobility 	minSpeed 	3.9643862247467
scalar IntersectionExampleScenario.node[7].veinsmobility 	maxSpeed 	17.125
scalar IntersectionExampleScenario.node[7].veinsmobility 	totalDistance 	546.33379681606
scalar IntersectionExampleScenario.node[7].veinsmobility 	totalCO2Emission 	145.94244152955
scalar IntersectionExampleScenario.node[8].appl 	VehicleRemoved 	0
scalar IntersectionExampleScenario.node[8].appl 	ArrivedAtDest 	1
scalar IntersectionExampleScenario.node[8].appl 	IntersectionEnterTime 	26
scalar IntersectionExampleScenario.node[8].appl 	IntersectionExitTime 	53.259691760875
scalar IntersectionExampleScenario.node[8].appl 	NumberOfCollisions 	0
scalar IntersectionExampleScenario.node[8].nic.phy80211p 	busyTime 	0
scalar IntersectionExampleScenario.node[8].nic.mac1609_4 	ReceivedUnicastPackets 	0
scalar IntersectionExampleScenario.node[8].nic.mac1609_4 	ReceivedBroadcasts 	0
scalar IntersectionExampleScenario.node[8].nic.mac1609_4 	SentPackets 	0
scalar IntersectionExampleScenario.node[8].nic.mac1609_4 	SNIRLostPackets 	0
scalar IntersectionExampleScenario.node[8].nic.mac1609_4 	RXTXLostPackets 	0
scalar IntersectionExampleScenario.node[8].nic.mac1609_4 	TotalLostPackets 	0
scalar IntersectionExampleScenario.node[8].nic.mac1609_4 	DroppedPacketsInMac 	0
scalar IntersectionExampleScenario.node[8].nic.mac1609_4 	TooLittleTime 	0
scalar IntersectionExampleScenario.node[8].nic.mac1609_4 	TimesIntoBackoff 	0
scalar IntersectionExampleScenario.node[8].nic.mac1609_4 	SlotsBackoff 	0
scalar IntersectionExampleScenario.node[8].nic.mac1609_4 	NumInternalContention 	0
scalar IntersectionExampleScenario.node[8].nic.mac1609_4 	totalBusyTime 	0
scalar IntersectionExampleScenario.node[8].veinsmobility 	startTime 	26
scalar IntersectionExampleScenario.node[8].veinsmobility 	totalTime 	43.75
scalar IntersectionExampleScenario.node[8].veinsmobility 	stopTime 	70
scalar IntersectionExampleScenario.node[8].veinsmobility 	minSpeed 	5.6500000953674
scalar IntersectionExampleScenario.node[8].veinsmobility 	maxSpeed 	15.02499961853
scalar IntersectionExampleScenario.node[8].veinsmobility 	totalDistance 	567.23844909668
scalar IntersectionExampleScenario.node[8].veinsmobility 	totalCO2Emission 	134.72862407737
scalar IntersectionExampleScenario.node[12].appl 	VehicleRemoved 	0
scalar IntersectionExampleScenario.node[12].appl 	ArrivedAtDest 	1
scalar IntersectionExampleScenario.node[12].appl 	IntersectionEnterTime 	34.25
scalar IntersectionExampleScenario.node[12].appl 	IntersectionExitTime 	57.359803074854
scalar IntersectionExampleScenario.node[12].appl 	NumberOfCollisions 	0
scalar IntersectionExampleScenario.node[12].nic.phy80211p 	busyTime 	0
scalar IntersectionExampleScenario.node[12].nic.mac1609_4 	ReceivedUnicastPackets 	0
scalar IntersectionExampleScenario.node[12].nic.mac1609_4 	ReceivedBroadcasts 	0
scalar IntersectionExampleScenario.node[12].nic.mac1609_4 	SentPackets 	0
scalar IntersectionExampleScenario.node[12].nic.mac1609_4 	SNIRLostPackets 	0
scalar IntersectionExampleScenario.node[12].nic.mac1609_4 	RXTXLostPackets 	0
scalar IntersectionExampleScenario.node[12].nic.mac1609_4 	TotalLostPackets 	0
scalar IntersectionExampleScenario.node[12].nic.mac1609_4 	DroppedPacketsInMac 	0
scalar IntersectionExampleScenario.node[12].nic.mac1609_4 	TooLittleTime 	0
scalar IntersectionExampleScenario.node[12].nic.mac1609_4 	TimesIntoBackoff 	0
scalar IntersectionExampleScenario.node[12].nic.mac1609_4 	SlotsBackoff 	0
scalar IntersectionExampleScenario.node[12].nic.mac1609_4 	NumInternalContention 	0
scalar IntersectionExampleScenario.node[12].nic.mac1609_4 	totalBusyTime 	0
scalar IntersectionExampleScenario.node[12].veinsmobility 	startTime 	34.25
scalar IntersectionExampleScenario.node[12].veinsmobility 	totalTime 	39
scalar IntersectionExampleScenario.node[12].veinsmobility 	stopTime 	73.5
scalar IntersectionExampleScenario.node[12].veinsmobility 	minSpeed 	5.6500000953674
scalar IntersectionExampleScenario.node[12].veinsmobility 	maxSpeed 	16.5
scalar IntersectionExampleScenario.node[12].veinsmobility 	totalDistance 	542.76753986173
scalar IntersectionExampleScenario.node[12].veinsmobility 	totalCO2Emission 	133.66137299377
scalar IntersectionExampleScenario.node[6].appl 	VehicleRemoved 	0
scalar IntersectionExampleScenario.node[6].appl 	ArrivedAtDest 	1
scalar IntersectionExampleScenario.node[6].appl 	IntersectionEnterTime 	16.75
scalar IntersectionExampleScenario.node[6].appl 	IntersectionExitTime 	65.543311179703
scalar IntersectionExampleScenario.node[6].appl 	NumberOfCollisions 	0
scalar IntersectionExampleScenario.node[6].nic.phy80211p 	busyTime 	0
scalar IntersectionExampleScenario.node[6].nic.mac1609_4 	ReceivedUnicastPackets 	0
scalar IntersectionExampleScenario.node[6].nic.mac1609_4 	ReceivedBroadcasts 	0
scalar IntersectionExampleScenario.node[6].nic.mac1609_4 	SentPackets 	0
scalar IntersectionExampleScenario.node[6].nic.mac1609_4 	SNIRLostPackets 	0
scalar IntersectionExampleScenario.node[6].nic.mac1609_4 	RXTXLostPackets 	0
scalar IntersectionExampleScenario.node[6].nic.mac1609_4 	TotalLostPackets 	0
scalar IntersectionExampleScenario.node[6].nic.mac1609_4 	DroppedPacketsInMac 	0
scalar IntersectionExampleScenario.node[6].nic.mac1609_4 	TooLittleTime 	0
scalar IntersectionExampleScenario.node[6].nic.mac1609_4 	TimesIntoBackoff 	0
scalar IntersectionExampleScenario.node[6].nic.mac1609_4 	SlotsBackoff 	0
scalar IntersectionExampleScenario.node[6].nic.mac1609_4 	NumInternalContention 	0
scalar IntersectionExampleScenario.node[6].nic.mac1609_4 	totalBusyTime 	0
scalar IntersectionExampleScenario.node[6].veinsmobility 	startTime 	16.75
scalar IntersectionExampleScenario.node[6].veinsmobility 	totalTime 	65.75
scalar IntersectionExampleScenario.node[6].veinsmobility 	stopTime 	82.75
scalar IntersectionExampleScenario.node[6].veinsmobility 	minSpeed 	0
scalar IntersectionExampleScenario.node[6].veinsmobility 	maxSpeed 	15.25
scalar IntersectionExampleScenario.node[6].veinsmobility 	totalDistance 	545.00279904754
scalar IntersectionExampleScenario.node[6].veinsmobility 	totalCO2Emission 	155.23793244754
scalar IntersectionExampleScenario.node[9].appl 	VehicleRemoved 	0
scalar IntersectionExampleScenario.node[9].appl 	ArrivedAtDest 	1
scalar IntersectionExampleScenario.node[9].appl 	IntersectionEnterTime 	26
scalar IntersectionExampleScenario.node[9].appl 	IntersectionExitTime 	67.818496911379
scalar IntersectionExampleScenario.node[9].appl 	NumberOfCollisions 	0
scalar IntersectionExampleScenario.node[9].nic.phy80211p 	busyTime 	0
scalar IntersectionExampleScenario.node[9].nic.mac1609_4 	ReceivedUnicastPackets 	0
scalar IntersectionExampleScenario.node[9].nic.mac1609_4 	ReceivedBroadcasts 	0
scalar IntersectionExampleScenario.node[9].nic.mac1609_4 	SentPackets 	0
scalar IntersectionExampleScenario.node[9].nic.mac1609_4 	SNIRLostPackets 	0
scalar IntersectionExampleScenario.node[9].nic.mac1609_4 	RXTXLostPackets 	0
scalar IntersectionExampleScenario.node[9].nic.mac1609_4 	TotalLostPackets 	0
scalar IntersectionExampleScenario.node[9].nic.mac1609_4 	DroppedPacketsInMac 	0
scalar IntersectionExampleScenario.node[9].nic.mac1609_4 	TooLittleTime 	0
scalar IntersectionExampleScenario.node[9].nic.mac1609_4 	TimesIntoBackoff 	0
scalar IntersectionExampleScenario.node[9].nic.mac1609_4 	SlotsBackoff 	0
scalar IntersectionExampleScenario.node[9].nic.mac1609_4 	NumInternalContention 	0
scalar IntersectionExampleScenario.node[9].nic.mac1609_4 	totalBusyTime 	0
scalar IntersectionExampleScenario.node[9].veinsmobility 	startTime 	26
scalar IntersectionExampleScenario.node[9].veinsmobility 	totalTime 	58
scalar IntersectionExampleScenario.node[9].veinsmobility 	stopTime 	84.25
scalar IntersectionExampleScenario.node[9].veinsmobility 	minSpeed 	0
scalar IntersectionExampleScenario.node[9].veinsmobility 	maxSpeed 	16.27499961853
scalar IntersectionExampleScenario.node[9].veinsmobility 	totalDistance 	545.55932169071
scalar IntersectionExampleScenario.node[9].veinsmobility 	totalCO2Emission 	152.44616827913
scalar IntersectionExampleScenario.node[11].appl 	VehicleRemoved 	0
scalar IntersectionExampleScenario.node[11].appl 	ArrivedAtDest 	1
scalar IntersectionExampleScenario.node[11].appl 	IntersectionEnterTime 	32.25
scalar IntersectionExampleScenario.node[11].appl 	IntersectionExitTime 	70.250052944
scalar IntersectionExampleScenario.node[11].appl 	NumberOfCollisions 	0
scalar IntersectionExampleScenario.node[11].nic.phy80211p 	busyTime 	0
scalar IntersectionExampleScenario.node[11].nic.mac1609_4 	ReceivedUnicastPackets 	0
scalar IntersectionExampleScenario.node[11].nic.mac1609_4 	ReceivedBroadcasts 	0
scalar IntersectionExampleScenario.node[11].nic.mac1609_4 	SentPackets 	0
scalar IntersectionExampleScenario.node[11].nic.mac1609_4 	SNIRLostPackets 	0
scalar IntersectionExampleScenario.node[11].nic.mac1609_4 	RXTXLostPackets 	0
scalar IntersectionExampleScenario.node[11].nic.mac1609_4 	TotalLostPackets 	0
scalar IntersectionExampleScenario.node[11].nic.mac1609_4 	DroppedPacketsInMac 	0
scalar IntersectionExampleScenario.node[11].nic.mac1609_4 	TooLittleTime 	0
scalar IntersectionExampleScenario.node[11].nic.mac1609_4 	TimesIntoBackoff 	0
scalar IntersectionExampleScenario.node[11].nic.mac1609_4 	SlotsBackoff 	0
scalar IntersectionExampleScenario.node[11].nic.mac1609_4 	NumInternalContention 	0
scalar IntersectionExampleScenario.node[11].nic.mac1609_4 	totalBusyTime 	0
scalar IntersectionExampleScenario.node[11].veinsmobility 	startTime 	32.25
scalar IntersectionExampleScenario.node[11].veinsmobility 	totalTime 	54
scalar IntersectionExampleScenario.node[11].veinsmobility 	stopTime 	86.5
scalar IntersectionExampleScenario.node[11].veinsmobility 	minSpeed 	0
scalar IntersectionExampleScenario.node[11].veinsmobility 	maxSpeed 	16
scalar IntersectionExampleScenario.node[11].veinsmobility 	totalDistance 	550.72253209578
scalar IntersectionExampleScenario.node[11].veinsmobility 	totalCO2Emission 	144.93912289786
scalar IntersectionExampleScenario.node[13].appl 	VehicleRemoved 	0
scalar IntersectionExampleScenario.node[13].appl 	ArrivedAtDest 	1
scalar IntersectionExampleScenario.node[13].appl 	IntersectionEnterTime 	35.5
scalar IntersectionExampleScenario.node[13].appl 	IntersectionExitTime 	72.523722750397
scalar IntersectionExampleScenario.node[13].appl 	NumberOfCollisions 	0
scalar IntersectionExampleScenario.node[13].nic.phy80211p 	busyTime 	0
scalar IntersectionExampleScenario.node[13].nic.mac1609_4 	ReceivedUnicastPackets 	0
scalar IntersectionExampleScenario.node[13].nic.mac1609_4 	ReceivedBroadcasts 	0
scalar IntersectionExampleScenario.node[13].nic.mac1609_4 	SentPackets 	0
scalar IntersectionExampleScenario.node[13].nic.mac1609_4 	SNIRLostPackets 	0
scalar IntersectionExampleScenario.node[13].nic.mac1609_4 	RXTXLostPackets 	0
scalar IntersectionExampleScenario.node[13].nic.mac1609_4 	TotalLostPackets 	0
scalar IntersectionExampleScenario.node[13].nic.mac1609_4 	DroppedPacketsInMac 	0
scalar IntersectionExampleScenario.node[13].nic.mac1609_4 	TooLittleTime 	0
scalar IntersectionExampleScenario.node[13].nic.mac1609_4 	TimesIntoBackoff 	0
scalar IntersectionExampleScenario.node[13].nic.mac1609_4 	SlotsBackoff 	0
scalar IntersectionExampleScenario.node[13].nic.mac1609_4 	NumInternalContention 	0
scalar IntersectionExampleScenario.node[13].nic.mac1609_4 	totalBusyTime 	0
scalar IntersectionExampleScenario.node[13].veinsmobility 	startTime 	35.5
scalar IntersectionExampleScenario.node[13].veinsmobility 	totalTime 	54
scalar IntersectionExampleScenario.node[13].veinsmobility 	stopTime 	89.75
scalar IntersectionExampleScenario.node[13].veinsmobility 	minSpeed 	2.4306075572968
scalar IntersectionExampleScenario.node[13].veinsmobility 	maxSpeed 	15.02499961853
scalar IntersectionExampleScenario.node[13].veinsmobility 	totalDistance 	564.19840967948
scalar IntersectionExampleScenario.node[13].veinsmobility 	totalCO2Emission 	140.18529459267
scalar IntersectionExampleScenario.node[14].appl 	VehicleRemoved 	0
scalar IntersectionExampleScenario.node[14].appl 	ArrivedAtDest 	1
scalar IntersectionExampleScenario.node[14].appl 	IntersectionEnterTime 	44
scalar IntersectionExampleScenario.node[14].appl 	IntersectionExitTime 	74.801568784838
scalar IntersectionExampleScenario.node[14].appl 	NumberOfCollisions 	0
scalar IntersectionExampleScenario.node[14].nic.phy80211p 	busyTime 	0
scalar IntersectionExampleScenario.node[14].nic.mac1609_4 	ReceivedUnicastPackets 	0
scalar IntersectionExampleScenario.node[14].nic.mac1609_4 	ReceivedBroadcasts 	0
scalar IntersectionExampleScenario.node[14].nic.mac1609_4 	SentPackets 	0
scalar IntersectionExampleScenario.node[14].nic.mac1609_4 	SNIRLostPackets 	0
scalar IntersectionExampleScenario.node[14].nic.mac1609_4 	RXTXLostPackets 	0
scalar IntersectionExampleScenario.node[14].nic.mac1609_4 	TotalLostPackets 	0
scalar IntersectionExampleScenario.node[14].nic.mac1609_4 	DroppedPacketsInMac 	0
scalar IntersectionExampleScenario.node[14].nic.mac1609_4 	TooLittleTime 	0
scalar IntersectionExampleScenario.node[14].nic.mac1609_4 	TimesIntoBackoff 	0
scalar IntersectionExampleScenario.node[14].nic.mac1609_4 	SlotsBackoff 	0
scalar IntersectionExampleScenario.node[14].nic.mac1609_4 	NumInternalContention 	0
scalar IntersectionExampleScenario.node[14].nic.mac1609_4 	totalBusyTime 	0
scalar IntersectionExampleScenario.node[14].veinsmobility 	startTime 	44
scalar IntersectionExampleScenario.node[14].veinsmobility 	totalTime 	46.75
scalar IntersectionExampleScenario.node[14].veinsmobility 	stopTime 	91
scalar IntersectionExampleScenario.node[14].veinsmobility 	minSpeed 	2.5016062259674
scalar IntersectionExampleScenario.node[14].veinsmobility 	maxSpeed 	15.64999961853
scalar IntersectionExampleScenario.node[14].veinsmobility 	totalDistance 	550.13759744697
scalar IntersectionExampleScenario.node[14].veinsmobility 	totalCO2Emission 	135.30150854257
scalar IntersectionExampleScenario.node[10].appl 	VehicleRemoved 	0
scalar IntersectionExampleScenario.node[10].appl 	ArrivedAtDest 	1
scalar IntersectionExampleScenario.node[10].appl 	IntersectionEnterTime 	29.25
scalar IntersectionExampleScenario.node[10].appl 	IntersectionExitTime 	79.536600747466
scalar IntersectionExampleScenario.node[10].appl 	NumberOfCollisions 	0
scalar IntersectionExampleScenario.node[10].nic.phy80211p 	busyTime 	0
scalar IntersectionExampleScenario.node[10].nic.mac1609_4 	ReceivedUnicastPackets 	0
scalar IntersectionExampleScenario.node[10].nic.mac1609_4 	ReceivedBroadcasts 	0
scalar IntersectionExampleScenario.node[10].nic.mac1609_4 	SentPackets 	0
scalar IntersectionExampleScenario.node[10].nic.mac1609_4 	SNIRLostPackets 	0
scalar IntersectionExampleScenario.node[10].nic.mac1609_4 	RXTXLostPackets 	0
scalar IntersectionExampleScenario.node[10].nic.mac1609_4 	TotalLostPackets 	0
scalar IntersectionExampleScenario.node[10].nic.mac1609_4 	DroppedPacketsInMac 	0
scalar IntersectionExampleScenario.node[10].nic.mac1609_4 	TooLittleTime 	0
scalar IntersectionExampleScenario.node[10].nic.mac1609_4 	TimesIntoBackoff 	0
scalar IntersectionExampleScenario.node[10].nic.mac1609_4 	SlotsBackoff 	0
scalar IntersectionExampleScenario.node[10].nic.mac1609_4 	NumInternalContention 	0
scalar IntersectionExampleScenario.node[10].nic.mac1609_4 	totalBusyTime 	0
scalar IntersectionExampleScenario.node[10].veinsmobility 	startTime 	29.25
scalar IntersectionExampleScenario.node[10].veinsmobility 	totalTime 	67.25
scalar IntersectionExampleScenario.node[10].veinsmobility 	stopTime 	96.75
scalar IntersectionExampleScenario.node[10].veinsmobility 	minSpeed 	0
scalar IntersectionExampleScenario.node[10].veinsmobility 	maxSpeed 	15.25
scalar IntersectionExampleScenario.node[10].veinsmobility 	totalDistance 	544.46383572966
scalar IntersectionExampleScenario.node[10].veinsmobility 	totalCO2Emission 	156.24299564102
scalar IntersectionExampleScenario.node[16].appl 	VehicleRemoved 	0
scalar IntersectionExampleScenario.node[16].appl 	ArrivedAtDest 	1
scalar IntersectionExampleScenario.node[16].appl 	IntersectionEnterTime 	52.5
scalar IntersectionExampleScenario.node[16].appl 	IntersectionExitTime 	81.870738689846
scalar IntersectionExampleScenario.node[16].appl 	NumberOfCollisions 	0
scalar IntersectionExampleScenario.node[16].nic.phy80211p 	busyTime 	0
scalar IntersectionExampleScenario.node[16].nic.mac1609_4 	ReceivedUnicastPackets 	0
scalar IntersectionExampleScenario.node[16].nic.mac1609_4 	ReceivedBroadcasts 	0
scalar IntersectionExampleScenario.node[16].nic.mac1609_4 	SentPackets 	0
scalar IntersectionExampleScenario.node[16].nic.mac1609_4 	SNIRLostPackets 	0
scalar IntersectionExampleScenario.node[16].nic.mac1609_4 	RXTXLostPackets 	0
scalar IntersectionExampleScenario.node[16].nic.mac1609_4 	TotalLostPackets 	0
scalar IntersectionExampleScenario.node[16].nic.mac1609_4 	DroppedPacketsInMac 	0
scalar IntersectionExampleScenario.node[16].nic.mac1609_4 	TooLittleTime 	0
scalar IntersectionExampleScenario.node[16].nic.mac1609_4 	TimesIntoBackoff 	0
scalar IntersectionExampleScenario.node[16].nic.mac1609_4 	SlotsBackoff 	0
scalar IntersectionExampleScenario.node[16].nic.mac1609_4 	NumInternalContention 	0
scalar IntersectionExampleScenario.node[16].nic.mac1609_4 	totalBusyTime 	0
scalar IntersectionExampleScenario.node[16].veinsmobility 	startTime 	52.5
scalar IntersectionExampleScenario.node[16].veinsmobility 	totalTime 	45.5
scalar IntersectionExampleScenario.node[16].veinsmobility 	stopTime 	98.25
scalar IntersectionExampleScenario.node[16].veinsmobility 	minSpeed 	3.1330020427704
scalar IntersectionExampleScenario.node[16].veinsmobility 	maxSpeed 	15.64999961853
scalar IntersectionExampleScenario.node[16].veinsmobility 	totalDistance 	549.57117435965
scalar IntersectionExampleScenario.node[16].veinsmobility 	totalCO2Emission 	134.11600747657
scalar IntersectionExampleScenario.node[17].appl 	VehicleRemoved 	0
scalar IntersectionExampleScenario.node[17].appl 	ArrivedAtDest 	1
scalar IntersectionExampleScenario.node[17].appl 	IntersectionEnterTime 	57.25
scalar IntersectionExampleScenario.node[17].appl 	IntersectionExitTime 	94.255469172844
scalar IntersectionExampleScenario.node[17].appl 	NumberOfCollisions 	0
scalar IntersectionExampleScenario.node[17].nic.phy80211p 	busyTime 	0
scalar IntersectionExampleScenario.node[17].nic.mac1609_4 	ReceivedUnicastPackets 	0
scalar IntersectionExampleScenario.node[17].nic.mac1609_4 	ReceivedBroadcasts 	0
scalar IntersectionExampleScenario.node[17].nic.mac1609_4 	SentPackets 	0
scalar IntersectionExampleScenario.node[17].nic.mac1609_4 	SNIRLostPackets 	0
scalar IntersectionExampleScenario.node[17].nic.mac1609_4 	RXTXLostPackets 	0
scalar IntersectionExampleScenario.node[17].nic.mac1609_4 	TotalLostPackets 	0
scalar IntersectionExampleScenario.node[17].nic.mac1609_4 	DroppedPacketsInMac 	0
scalar IntersectionExampleScenario.node[17].nic.mac1609_4 	TooLittleTime 	0
scalar IntersectionExampleScenario.node[17].nic.mac1609_4 	TimesIntoBackoff 	0
scalar IntersectionExampleScenario.node[17].nic.mac1609_4 	SlotsBackoff 	0
scalar IntersectionExampleScenario.node[17].nic.mac1609_4 	NumInternalContention 	0
scalar IntersectionExampleScenario.node[17].nic.mac1609_4 	totalBusyTime 	0
scalar IntersectionExampleScenario.node[17].veinsmobility 	startTime 	57.25
scalar IntersectionExampleScenario.node[17].veinsmobility 	totalTime 	53.5
scalar IntersectionExampleScenario.node[17].veinsmobility 	stopTime 	111
scalar IntersectionExampleScenario.node[17].veinsmobility 	minSpeed 	0
scalar IntersectionExampleScenario.node[17].veinsmobility 	maxSpeed 	15.02499961853
scalar IntersectionExampleScenario.node[17].veinsmobility 	totalDistance 	551.17227935791
scalar IntersectionExampleScenario.node[17].veinsmobility 	totalCO2Emission 	141.012652419
scalar IntersectionExampleScenario.node[15].appl 	VehicleRemoved 	0
scalar IntersectionExampleScenario.node[15].appl 	ArrivedAtDest 	1
scalar IntersectionExampleScenario.node[15].appl 	IntersectionEnterTime 	52
scalar IntersectionExampleScenario.node[15].appl 	IntersectionExitTime 	93.547166557051
scalar IntersectionExampleScenario.node[15].appl 	NumberOfCollisions 	0
scalar IntersectionExampleScenario.node[15].nic.phy80211p 	busyTime 	0
scalar IntersectionExampleScenario.node[15].nic.mac1609_4 	ReceivedUnicastPackets 	0
scalar IntersectionExampleScenario.node[15].nic.mac1609_4 	ReceivedBroadcasts 	0
scalar IntersectionExampleScenario.node[15].nic.mac1609_4 	SentPackets 	0
scalar IntersectionExampleScenario.node[15].nic.mac1609_4 	SNIRLostPackets 	0
scalar IntersectionExampleScenario.node[15].nic.mac1609_4 	RXTXLostPackets 	0
scalar IntersectionExampleScenario.node[15].nic.mac1609_4 	TotalLostPackets 	0
scalar IntersectionExampleScenario.node[15].nic.mac1609_4 	DroppedPacketsInMac 	0
scalar IntersectionExampleScenario.node[15].nic.mac1609_4 	TooLittleTime 	0
scalar IntersectionExampleScenario.node[15].nic.mac1609_4 	TimesIntoBackoff 	0
scalar IntersectionExampleScenario.node[15].nic.mac1609_4 	SlotsBackoff 	0
scalar IntersectionExampleScenario.node[15].nic.mac1609_4 	NumInternalContention 	0
scalar IntersectionExampleScenario.node[15].nic.mac1609_4 	totalBusyTime 	0
scalar IntersectionExampleScenario.node[15].veinsmobility 	startTime 	52
scalar IntersectionExampleScenario.node[15].veinsmobility 	totalTime 	59
scalar IntersectionExampleScenario.node[15].veinsmobility 	stopTime 	111.25
scalar IntersectionExampleScenario.node[15].veinsmobility 	minSpeed 	0
scalar IntersectionExampleScenario.node[15].veinsmobility 	maxSpeed 	15.02499961853
scalar IntersectionExampleScenario.node[15].veinsmobility 	totalDistance 	546.21668149382
scalar IntersectionExampleScenario.node[15].veinsmobility 	totalCO2Emission 	145.58755538394
scalar IntersectionExampleScenario.node[18].appl 	VehicleRemoved 	0
scalar IntersectionExampleScenario.node[18].appl 	ArrivedAtDest 	1
scalar IntersectionExampleScenario.node[18].appl 	IntersectionEnterTime 	66
scalar IntersectionExampleScenario.node[18].appl 	IntersectionExitTime 	96.347913556994
scalar IntersectionExampleScenario.node[18].appl 	NumberOfCollisions 	0
scalar IntersectionExampleScenario.node[18].nic.phy80211p 	busyTime 	0
scalar IntersectionExampleScenario.node[18].nic.mac1609_4 	ReceivedUnicastPackets 	0
scalar IntersectionExampleScenario.node[18].nic.mac1609_4 	ReceivedBroadcasts 	0
scalar IntersectionExampleScenario.node[18].nic.mac1609_4 	SentPackets 	0
scalar IntersectionExampleScenario.node[18].nic.mac1609_4 	SNIRLostPackets 	0
scalar IntersectionExampleScenario.node[18].nic.mac1609_4 	RXTXLostPackets 	0
scalar IntersectionExampleScenario.node[18].nic.mac1609_4 	TotalLostPackets 	0
scalar IntersectionExampleScenario.node[18].nic.mac1609_4 	DroppedPacketsInMac 	0
scalar IntersectionExampleScenario.node[18].nic.mac1609_4 	TooLittleTime 	0
scalar IntersectionExampleScenario.node[18].nic.mac1609_4 	TimesIntoBackoff 	0
scalar IntersectionExampleScenario.node[18].nic.mac1609_4 	SlotsBackoff 	0
scalar IntersectionExampleScenario.node[18].nic.mac1609_4 	NumInternalContention 	0
scalar IntersectionExampleScenario.node[18].nic.mac1609_4 	totalBusyTime 	0
scalar IntersectionExampleScenario.node[18].veinsmobility 	startTime 	66
scalar IntersectionExampleScenario.node[18].veinsmobility 	totalTime 	46
scalar IntersectionExampleScenario.node[18].veinsmobility 	stopTime 	112.25
scalar IntersectionExampleScenario.node[18].veinsmobility 	minSpeed 	2.6533794403076
scalar IntersectionExampleScenario.node[18].veinsmobility 	maxSpeed 	16.27499961853
scalar IntersectionExampleScenario.node[18].veinsmobility 	totalDistance 	551.21878814697
scalar IntersectionExampleScenario.node[18].veinsmobility 	totalCO2Emission 	141.34775480669
scalar IntersectionExampleScenario.node[21].appl 	VehicleRemoved 	0
scalar IntersectionExampleScenario.node[21].appl 	ArrivedAtDest 	1
scalar IntersectionExampleScenario.node[21].appl 	IntersectionEnterTime 	83.5
scalar IntersectionExampleScenario.node[21].appl 	IntersectionExitTime 	106.0629418469
scalar IntersectionExampleScenario.node[21].appl 	NumberOfCollisions 	0
scalar IntersectionExampleScenario.node[21].nic.phy80211p 	busyTime 	0
scalar IntersectionExampleScenario.node[21].nic.mac1609_4 	ReceivedUnicastPackets 	0
scalar IntersectionExampleScenario.node[21].nic.mac1609_4 	ReceivedBroadcasts 	0
scalar IntersectionExampleScenario.node[21].nic.mac1609_4 	SentPackets 	0
scalar IntersectionExampleScenario.node[21].nic.mac1609_4 	SNIRLostPackets 	0
scalar IntersectionExampleScenario.node[21].nic.mac1609_4 	RXTXLostPackets 	0
scalar IntersectionExampleScenario.node[21].nic.mac1609_4 	TotalLostPackets 	0
scalar IntersectionExampleScenario.node[21].nic.mac1609_4 	DroppedPacketsInMac 	0
scalar IntersectionExampleScenario.node[21].nic.mac1609_4 	TooLittleTime 	0
scalar IntersectionExampleScenario.node[21].nic.mac1609_4 	TimesIntoBackoff 	0
scalar IntersectionExampleScenario.node[21].nic.mac1609_4 	SlotsBackoff 	0
scalar IntersectionExampleScenario.node[21].nic.mac1609_4 	NumInternalContention 	0
scalar IntersectionExampleScenario.node[21].nic.mac1609_4 	totalBusyTime 	0
scalar IntersectionExampleScenario.node[21].veinsmobility 	startTime 	83.5
scalar IntersectionExampleScenario.node[21].veinsmobility 	totalTime 	38.25
scalar IntersectionExampleScenario.node[21].veinsmobility 	stopTime 	122
scalar IntersectionExampleScenario.node[21].veinsmobility 	minSpeed 	5.6500000953674
scalar IntersectionExampleScenario.node[21].veinsmobility 	maxSpeed 	16.625
scalar IntersectionExampleScenario.node[21].veinsmobility 	totalDistance 	552.63859887932
scalar IntersectionExampleScenario.node[21].veinsmobility 	totalCO2Emission 	128.40073529159
scalar IntersectionExampleScenario.node[22].appl 	VehicleRemoved 	0
scalar IntersectionExampleScenario.node[22].appl 	ArrivedAtDest 	1
scalar IntersectionExampleScenario.node[22].appl 	IntersectionEnterTime 	84
scalar IntersectionExampleScenario.node[22].appl 	IntersectionExitTime 	108.59472117131
scalar IntersectionExampleScenario.node[22].appl 	NumberOfCollisions 	0
scalar IntersectionExampleScenario.node[22].nic.phy80211p 	busyTime 	0
scalar IntersectionExampleScenario.node[22].nic.mac1609_4 	ReceivedUnicastPackets 	0
scalar IntersectionExampleScenario.node[22].nic.mac1609_4 	ReceivedBroadcasts 	0
scalar IntersectionExampleScenario.node[22].nic.mac1609_4 	SentPackets 	0
scalar IntersectionExampleScenario.node[22].nic.mac1609_4 	SNIRLostPackets 	0
scalar IntersectionExampleScenario.node[22].nic.mac1609_4 	RXTXLostPackets 	0
scalar IntersectionExampleScenario.node[22].nic.mac1609_4 	TotalLostPackets 	0
scalar IntersectionExampleScenario.node[22].nic.mac1609_4 	DroppedPacketsInMac 	0
scalar IntersectionExampleScenario.node[22].nic.mac1609_4 	TooLittleTime 	0
scalar IntersectionExampleScenario.node[22].nic.mac1609_4 	TimesIntoBackoff 	0
scalar IntersectionExampleScenario.node[22].nic.mac1609_4 	SlotsBackoff 	0
scalar IntersectionExampleScenario.node[22].nic.mac1609_4 	NumInternalContention 	0
scalar IntersectionExampleScenario.node[22].nic.mac1609_4 	totalBusyTime 	0
scalar IntersectionExampleScenario.node[22].veinsmobility 	startTime 	84
scalar IntersectionExampleScenario.node[22].veinsmobility 	totalTime 	40.25
scalar IntersectionExampleScenario.node[22].veinsmobility 	stopTime 	124.5
scalar IntersectionExampleScenario.node[22].veinsmobility 	minSpeed 	0
scalar IntersectionExampleScenario.node[22].veinsmobility 	maxSpeed 	16.89999961853
scalar IntersectionExampleScenario.node[22].veinsmobility 	totalDistance 	542.74358532696
scalar IntersectionExampleScenario.node[22].veinsmobility 	totalCO2Emission 	142.67653525278
scalar IntersectionExampleScenario.node[19].appl 	VehicleRemoved 	0
scalar IntersectionExampleScenario.node[19].appl 	ArrivedAtDest 	1
scalar IntersectionExampleScenario.node[19].appl 	IntersectionEnterTime 	81
scalar IntersectionExampleScenario.node[19].appl 	IntersectionExitTime 	125.29840820702
scalar IntersectionExampleScenario.node[19].appl 	NumberOfCollisions 	0
scalar IntersectionExampleScenario.node[19].nic.phy80211p 	busyTime 	0
scalar IntersectionExampleScenario.node[19].nic.mac1609_4 	ReceivedUnicastPackets 	0
scalar IntersectionExampleScenario.node[19].nic.mac1609_4 	ReceivedBroadcasts 	0
scalar IntersectionExampleScenario.node[19].nic.mac1609_4 	SentPackets 	0
scalar IntersectionExampleScenario.node[19].nic.mac1609_4 	SNIRLostPackets 	0
scalar IntersectionExampleScenario.node[19].nic.mac1609_4 	RXTXLostPackets 	0
scalar IntersectionExampleScenario.node[19].nic.mac1609_4 	TotalLostPackets 	0
scalar IntersectionExampleScenario.node[19].nic.mac1609_4 	DroppedPacketsInMac 	0
scalar IntersectionExampleScenario.node[19].nic.mac1609_4 	TooLittleTime 	0
scalar IntersectionExampleScenario.node[19].nic.mac1609_4 	TimesIntoBackoff 	0
scalar IntersectionExampleScenario.node[19].nic.mac1609_4 	SlotsBackoff 	0
scalar IntersectionExampleScenario.node[19].nic.mac1609_4 	NumInternalContention 	0
scalar IntersectionExampleScenario.node[19].nic.mac1609_4 	totalBusyTime 	0
scalar IntersectionExampleScenario.node[19].veinsmobility 	startTime 	81
scalar IntersectionExampleScenario.node[19].veinsmobility 	totalTime 	61.25
scalar IntersectionExampleScenario.node[19].veinsmobility 	stopTime 	142.5
scalar IntersectionExampleScenario.node[19].veinsmobility 	minSpeed 	0
scalar IntersectionExampleScenario.node[19].veinsmobility 	maxSpeed 	14.75
scalar IntersectionExampleScenario.node[19].veinsmobility 	totalDistance 	551.54579271426
scalar IntersectionExampleScenario.node[19].veinsmobility 	totalCO2Emission 	146.44441973187
scalar IntersectionExampleScenario.node[20].appl 	VehicleRemoved 	0
scalar IntersectionExampleScenario.node[20].appl 	ArrivedAtDest 	1
scalar IntersectionExampleScenario.node[20].appl 	IntersectionEnterTime 	82
scalar IntersectionExampleScenario.node[20].appl 	IntersectionExitTime 	126.01159075083
scalar IntersectionExampleScenario.node[20].appl 	NumberOfCollisions 	0
scalar IntersectionExampleScenario.node[20].nic.phy80211p 	busyTime 	0
scalar IntersectionExampleScenario.node[20].nic.mac1609_4 	ReceivedUnicastPackets 	0
scalar IntersectionExampleScenario.node[20].nic.mac1609_4 	ReceivedBroadcasts 	0
scalar IntersectionExampleScenario.node[20].nic.mac1609_4 	SentPackets 	0
scalar IntersectionExampleScenario.node[20].nic.mac1609_4 	SNIRLostPackets 	0
scalar IntersectionExampleScenario.node[20].nic.mac1609_4 	RXTXLostPackets 	0
scalar IntersectionExampleScenario.node[20].nic.mac1609_4 	TotalLostPackets 	0
scalar IntersectionExampleScenario.node[20].nic.mac1609_4 	DroppedPacketsInMac 	0
scalar IntersectionExampleScenario.node[20].nic.mac1609_4 	TooLittleTime 	0
scalar IntersectionExampleScenario.node[20].nic.mac1609_4 	TimesIntoBackoff 	0
scalar IntersectionExampleScenario.node[20].nic.mac1609_4 	SlotsBackoff 	0
scalar IntersectionExampleScenario.node[20].nic.mac1609_4 	NumInternalContention 	0
scalar IntersectionExampleScenario.node[20].nic.mac1609_4 	totalBusyTime 	0
scalar IntersectionExampleScenario.node[20].veinsmobility 	startTime 	82
scalar IntersectionExampleScenario.node[20].veinsmobility 	totalTime 	60.5
scalar IntersectionExampleScenario.node[20].veinsmobility 	stopTime 	142.75
scalar IntersectionExampleScenario.node[20].veinsmobility 	minSpeed 	0
scalar IntersectionExampleScenario.node[20].veinsmobility 	maxSpeed 	15.875
scalar IntersectionExampleScenario.node[20].veinsmobility 	totalDistance 	566.53708815441
scalar IntersectionExampleScenario.node[20].veinsmobility 	totalCO2Emission 	155.50575202029
scalar IntersectionExampleScenario.node[23].appl 	VehicleRemoved 	0
scalar IntersectionExampleScenario.node[23].appl 	ArrivedAtDest 	1
scalar IntersectionExampleScenario.node[23].appl 	IntersectionEnterTime 	84.25
scalar IntersectionExampleScenario.node[23].appl 	IntersectionExitTime 	128.55444989598
scalar IntersectionExampleScenario.node[23].appl 	NumberOfCollisions 	0
scalar IntersectionExampleScenario.node[23].nic.phy80211p 	busyTime 	0
scalar IntersectionExampleScenario.node[23].nic.mac1609_4 	ReceivedUnicastPackets 	0
scalar IntersectionExampleScenario.node[23].nic.mac1609_4 	ReceivedBroadcasts 	0
scalar IntersectionExampleScenario.node[23].nic.mac1609_4 	SentPackets 	0
scalar IntersectionExampleScenario.node[23].nic.mac1609_4 	SNIRLostPackets 	0
scalar IntersectionExampleScenario.node[23].nic.mac1609_4 	RXTXLostPackets 	0
scalar IntersectionExampleScenario.node[23].nic.mac1609_4 	TotalLostPackets 	0
scalar IntersectionExampleScenario.node[23].nic.mac1609_4 	DroppedPacketsInMac 	0
scalar IntersectionExampleScenario.node[23].nic.mac1609_4 	TooLittleTime 	0
scalar IntersectionExampleScenario.node[23].nic.mac1609_4 	TimesIntoBackoff 	0
scalar IntersectionExampleScenario.node[23].nic.mac1609_4 	SlotsBackoff 	0
scalar IntersectionExampleScenario.node[23].nic.mac1609_4 	NumInternalContention 	0
scalar IntersectionExampleScenario.node[23].nic.mac1609_4 	totalBusyTime 	0
scalar IntersectionExampleScenario.node[23].veinsmobility 	startTime 	84.25
scalar IntersectionExampleScenario.node[23].veinsmobility 	totalTime 	61.25
scalar IntersectionExampleScenario.node[23].veinsmobility 	stopTime 	145.75
scalar IntersectionExampleScenario.node[23].veinsmobility 	minSpeed 	0
scalar IntersectionExampleScenario.node[23].veinsmobility 	maxSpeed 	14.997289657593
scalar IntersectionExampleScenario.node[23].veinsmobility 	totalDistance 	579.08333334748
scalar IntersectionExampleScenario.node[23].veinsmobility 	totalCO2Emission 	149.2940643869
scalar IntersectionExampleScenario.node[24].appl 	VehicleRemoved 	0
scalar IntersectionExampleScenario.node[24].appl 	ArrivedAtDest 	1
scalar IntersectionExampleScenario.node[24].appl 	IntersectionEnterTime 	87.25
scalar IntersectionExampleScenario.node[24].appl 	IntersectionExitTime 	130.85978323145
scalar IntersectionExampleScenario.node[24].appl 	NumberOfCollisions 	0
scalar IntersectionExampleScenario.node[24].nic.phy80211p 	busyTime 	0
scalar IntersectionExampleScenario.node[24].nic.mac1609_4 	ReceivedUnicastPackets 	0
scalar IntersectionExampleScenario.node[24].nic.mac1609_4 	ReceivedBroadcasts 	0
scalar IntersectionExampleScenario.node[24].nic.mac1609_4 	SentPackets 	0
scalar IntersectionExampleScenario.node[24].nic.mac1609_4 	SNIRLostPackets 	0
scalar IntersectionExampleScenario.node[24].nic.mac1609_4 	RXTXLostPackets 	0
scalar IntersectionExampleScenario.node[24].nic.mac1609_4 	TotalLostPackets 	0
scalar IntersectionExampleScenario.node[24].nic.mac1609_4 	DroppedPacketsInMac 	0
scalar IntersectionExampleScenario.node[24].nic.mac1609_4 	TooLittleTime 	0
scalar IntersectionExampleScenario.node[24].nic.mac1609_4 	TimesIntoBackoff 	0
scalar IntersectionExampleScenario.node[24].nic.mac1609_4 	SlotsBackoff 	0
scalar IntersectionExampleScenario.node[24].nic.mac1609_4 	NumInternalContention 	0
scalar IntersectionExampleScenario.node[24].nic.mac1609_4 	totalBusyTime 	0
scalar IntersectionExampleScenario.node[24].veinsmobility 	startTime 	87.25
scalar IntersectionExampleScenario.node[24].veinsmobility 	totalTime 	60.25
scalar IntersectionExampleScenario.node[24].veinsmobility 	stopTime 	147.75
scalar IntersectionExampleScenario.node[24].veinsmobility 	minSpeed 	0
scalar IntersectionExampleScenario.node[24].veinsmobility 	maxSpeed 	15.875
scalar IntersectionExampleScenario.node[24].veinsmobility 	totalDistance 	573.48425922796
scalar IntersectionExampleScenario.node[24].veinsmobility 	totalCO2Emission 	156.99736732485
scalar IntersectionExampleScenario.node[26].appl 	VehicleRemoved 	0
scalar IntersectionExampleScenario.node[26].appl 	ArrivedAtDest 	1
scalar IntersectionExampleScenario.node[26].appl 	IntersectionEnterTime 	98.5
scalar IntersectionExampleScenario.node[26].appl 	IntersectionExitTime 	133.56614437726
scalar IntersectionExampleScenario.node[26].appl 	NumberOfCollisions 	0
scalar IntersectionExampleScenario.node[26].nic.phy80211p 	busyTime 	0
scalar IntersectionExampleScenario.node[26].nic.mac1609_4 	ReceivedUnicastPackets 	0
scalar IntersectionExampleScenario.node[26].nic.mac1609_4 	ReceivedBroadcasts 	0
scalar IntersectionExampleScenario.node[26].nic.mac1609_4 	SentPackets 	0
scalar IntersectionExampleScenario.node[26].nic.mac1609_4 	SNIRLostPackets 	0
scalar IntersectionExampleScenario.node[26].nic.mac1609_4 	RXTXLostPackets 	0
scalar IntersectionExampleScenario.node[26].nic.mac1609_4 	TotalLostPackets 	0
scalar IntersectionExampleScenario.node[26].nic.mac1609_4 	DroppedPacketsInMac 	0
scalar IntersectionExampleScenario.node[26].nic.mac1609_4 	TooLittleTime 	0
scalar IntersectionExampleScenario.node[26].nic.mac1609_4 	TimesIntoBackoff 	0
scalar IntersectionExampleScenario.node[26].nic.mac1609_4 	SlotsBackoff 	0
scalar IntersectionExampleScenario.node[26].nic.mac1609_4 	NumInternalContention 	0
scalar IntersectionExampleScenario.node[26].nic.mac1609_4 	totalBusyTime 	0
scalar IntersectionExampleScenario.node[26].veinsmobility 	startTime 	98.5
scalar IntersectionExampleScenario.node[26].veinsmobility 	totalTime 	53
scalar IntersectionExampleScenario.node[26].veinsmobility 	stopTime 	151.75
scalar IntersectionExampleScenario.node[26].veinsmobility 	minSpeed 	2.1088838577271
scalar IntersectionExampleScenario.node[26].veinsmobility 	maxSpeed 	14.39999961853
scalar IntersectionExampleScenario.node[26].veinsmobility 	totalDistance 	545.32860750657
scalar IntersectionExampleScenario.node[26].veinsmobility 	totalCO2Emission 	131.69703061767
scalar IntersectionExampleScenario.node[25].appl 	VehicleRemoved 	0
scalar IntersectionExampleScenario.node[25].appl 	ArrivedAtDest 	1
scalar IntersectionExampleScenario.node[25].appl 	IntersectionEnterTime 	89.25
scalar IntersectionExampleScenario.node[25].appl 	IntersectionExitTime 	138.53002273838
scalar IntersectionExampleScenario.node[25].appl 	NumberOfCollisions 	0
scalar IntersectionExampleScenario.node[25].nic.phy80211p 	busyTime 	0
scalar IntersectionExampleScenario.node[25].nic.mac1609_4 	ReceivedUnicastPackets 	0
scalar IntersectionExampleScenario.node[25].nic.mac1609_4 	ReceivedBroadcasts 	0
scalar IntersectionExampleScenario.node[25].nic.mac1609_4 	SentPackets 	0
scalar IntersectionExampleScenario.node[25].nic.mac1609_4 	SNIRLostPackets 	0
scalar IntersectionExampleScenario.node[25].nic.mac1609_4 	RXTXLostPackets 	0
scalar IntersectionExampleScenario.node[25].nic.mac1609_4 	TotalLostPackets 	0
scalar IntersectionExampleScenario.node[25].nic.mac1609_4 	DroppedPacketsInMac 	0
scalar IntersectionExampleScenario.node[25].nic.mac1609_4 	TooLittleTime 	0
scalar IntersectionExampleScenario.node[25].nic.mac1609_4 	TimesIntoBackoff 	0
scalar IntersectionExampleScenario.node[25].nic.mac1609_4 	SlotsBackoff 	0
scalar IntersectionExampleScenario.node[25].nic.mac1609_4 	NumInternalContention 	0
scalar IntersectionExampleScenario.node[25].nic.mac1609_4 	totalBusyTime 	0
scalar IntersectionExampleScenario.node[25].veinsmobility 	startTime 	89.25
scalar IntersectionExampleScenario.node[25].veinsmobility 	totalTime 	66.5
scalar IntersectionExampleScenario.node[25].veinsmobility 	stopTime 	156
scalar IntersectionExampleScenario.node[25].veinsmobility 	minSpeed 	0
scalar IntersectionExampleScenario.node[25].veinsmobility 	maxSpeed 	15.25
scalar IntersectionExampleScenario.node[25].veinsmobility 	totalDistance 	544.91891385466
scalar IntersectionExampleScenario.node[25].veinsmobility 	totalCO2Emission 	153.8364424346
scalar IntersectionExampleScenario.node[30].appl 	VehicleRemoved 	0
scalar IntersectionExampleScenario.node[30].appl 	ArrivedAtDest 	1
scalar IntersectionExampleScenario.node[30].appl 	IntersectionEnterTime 	109.75
scalar IntersectionExampleScenario.node[30].appl 	IntersectionExitTime 	140.50527912035
scalar IntersectionExampleScenario.node[30].appl 	NumberOfCollisions 	0
scalar IntersectionExampleScenario.node[30].nic.phy80211p 	busyTime 	0
scalar IntersectionExampleScenario.node[30].nic.mac1609_4 	ReceivedUnicastPackets 	0
scalar IntersectionExampleScenario.node[30].nic.mac1609_4 	ReceivedBroadcasts 	0
scalar IntersectionExampleScenario.node[30].nic.mac1609_4 	SentPackets 	0
scalar IntersectionExampleScenario.node[30].nic.mac1609_4 	SNIRLostPackets 	0
scalar IntersectionExampleScenario.node[30].nic.mac1609_4 	RXTXLostPackets 	0
scalar IntersectionExampleScenario.node[30].nic.mac1609_4 	TotalLostPackets 	0
scalar IntersectionExampleScenario.node[30].nic.mac1609_4 	DroppedPacketsInMac 	0
scalar IntersectionExampleScenario.node[30].nic.mac1609_4 	TooLittleTime 	0
scalar IntersectionExampleScenario.node[30].nic.mac1609_4 	TimesIntoBackoff 	0
scalar IntersectionExampleScenario.node[30].nic.mac1609_4 	SlotsBackoff 	0
scalar IntersectionExampleScenario.node[30].nic.mac1609_4 	NumInternalContention 	0
scalar IntersectionExampleScenario.node[30].nic.mac1609_4 	totalBusyTime 	0
scalar IntersectionExampleScenario.node[30].veinsmobility 	startTime 	109.75
scalar IntersectionExampleScenario.node[30].veinsmobility 	totalTime 	47.5
scalar IntersectionExampleScenario.node[30].veinsmobility 	stopTime 	157.5
scalar IntersectionExampleScenario.node[30].veinsmobility 	minSpeed 	2.3590698242188
scalar IntersectionExampleScenario.node[30].veinsmobility 	maxSpeed 	15.375
scalar IntersectionExampleScenario.node[30].veinsmobility 	totalDistance 	551.51052120716
scalar IntersectionExampleScenario.node[30].veinsmobility 	totalCO2Emission 	133.22499424159
scalar IntersectionExampleScenario.node[27].appl 	VehicleRemoved 	0
scalar IntersectionExampleScenario.node[27].appl 	ArrivedAtDest 	1
scalar IntersectionExampleScenario.node[27].appl 	IntersectionEnterTime 	104.25
scalar IntersectionExampleScenario.node[27].appl 	IntersectionExitTime 	140.82569564911
scalar IntersectionExampleScenario.node[27].appl 	NumberOfCollisions 	0
scalar IntersectionExampleScenario.node[27].nic.phy80211p 	busyTime 	0
scalar IntersectionExampleScenario.node[27].nic.mac1609_4 	ReceivedUnicastPackets 	0
scalar IntersectionExampleScenario.node[27].nic.mac1609_4 	ReceivedBroadcasts 	0
scalar IntersectionExampleScenario.node[27].nic.mac1609_4 	SentPackets 	0
scalar IntersectionExampleScenario.node[27].nic.mac1609_4 	SNIRLostPackets 	0
scalar IntersectionExampleScenario.node[27].nic.mac1609_4 	RXTXLostPackets 	0
scalar IntersectionExampleScenario.node[27].nic.mac1609_4 	TotalLostPackets 	0
scalar IntersectionExampleScenario.node[27].nic.mac1609_4 	DroppedPacketsInMac 	0
scalar IntersectionExampleScenario.node[27].nic.mac1609_4 	TooLittleTime 	0
scalar IntersectionExampleScenario.node[27].nic.mac1609_4 	TimesIntoBackoff 	0
scalar IntersectionExampleScenario.node[27].nic.mac1609_4 	SlotsBackoff 	0
scalar IntersectionExampleScenario.node[27].nic.mac1609_4 	NumInternalContention 	0
scalar IntersectionExampleScenario.node[27].nic.mac1609_4 	totalBusyTime 	0
scalar IntersectionExampleScenario.node[27].veinsmobility 	startTime 	104.25
scalar IntersectionExampleScenario.node[27].veinsmobility 	totalTime 	53
scalar IntersectionExampleScenario.node[27].veinsmobility 	stopTime 	157.5
scalar IntersectionExampleScenario.node[27].veinsmobility 	minSpeed 	0
scalar IntersectionExampleScenario.node[27].veinsmobility 	maxSpeed 	15.02499961853
scalar IntersectionExampleScenario.node[27].veinsmobility 	totalDistance 	548.7898857933
scalar IntersectionExampleScenario.node[27].veinsmobility 	totalCO2Emission 	143.22097588392
scalar IntersectionExampleScenario.node[33].appl 	VehicleRemoved 	0
scalar IntersectionExampleScenario.node[33].appl 	ArrivedAtDest 	1
scalar IntersectionExampleScenario.node[33].appl 	IntersectionEnterTime 	121.5
scalar IntersectionExampleScenario.node[33].appl 	IntersectionExitTime 	144.26592565616
scalar IntersectionExampleScenario.node[33].appl 	NumberOfCollisions 	0
scalar IntersectionExampleScenario.node[33].nic.phy80211p 	busyTime 	0
scalar IntersectionExampleScenario.node[33].nic.mac1609_4 	ReceivedUnicastPackets 	0
scalar IntersectionExampleScenario.node[33].nic.mac1609_4 	ReceivedBroadcasts 	0
scalar IntersectionExampleScenario.node[33].nic.mac1609_4 	SentPackets 	0
scalar IntersectionExampleScenario.node[33].nic.mac1609_4 	SNIRLostPackets 	0
scalar IntersectionExampleScenario.node[33].nic.mac1609_4 	RXTXLostPackets 	0
scalar IntersectionExampleScenario.node[33].nic.mac1609_4 	TotalLostPackets 	0
scalar IntersectionExampleScenario.node[33].nic.mac1609_4 	DroppedPacketsInMac 	0
scalar IntersectionExampleScenario.node[33].nic.mac1609_4 	TooLittleTime 	0
scalar IntersectionExampleScenario.node[33].nic.mac1609_4 	TimesIntoBackoff 	0
scalar IntersectionExampleScenario.node[33].nic.mac1609_4 	SlotsBackoff 	0
scalar IntersectionExampleScenario.node[33].nic.mac1609_4 	NumInternalContention 	0
scalar IntersectionExampleScenario.node[33].nic.mac1609_4 	totalBusyTime 	0
scalar IntersectionExampleScenario.node[33].veinsmobility 	startTime 	121.5
scalar IntersectionExampleScenario.node[33].veinsmobility 	totalTime 	38.5
scalar IntersectionExampleScenario.node[33].veinsmobility 	stopTime 	160.25
scalar IntersectionExampleScenario.node[33].veinsmobility 	minSpeed 	5.6500000953674
scalar IntersectionExampleScenario.node[33].veinsmobility 	maxSpeed 	15.709851264954
scalar IntersectionExampleScenario.node[33].veinsmobility 	totalDistance 	551.80619812012
scalar IntersectionExampleScenario.node[33].veinsmobility 	totalCO2Emission 	121.56940585449
scalar IntersectionExampleScenario.node[31].appl 	VehicleRemoved 	0
scalar IntersectionExampleScenario.node[31].appl 	ArrivedAtDest 	1
scalar IntersectionExampleScenario.node[31].appl 	IntersectionEnterTime 	110
scalar IntersectionExampleScenario.node[31].appl 	IntersectionExitTime 	143.30169722962
scalar IntersectionExampleScenario.node[31].appl 	NumberOfCollisions 	0
scalar IntersectionExampleScenario.node[31].nic.phy80211p 	busyTime 	0
scalar IntersectionExampleScenario.node[31].nic.mac1609_4 	ReceivedUnicastPackets 	0
scalar IntersectionExampleScenario.node[31].nic.mac1609_4 	ReceivedBroadcasts 	0
scalar IntersectionExampleScenario.node[31].nic.mac1609_4 	SentPackets 	0
scalar IntersectionExampleScenario.node[31].nic.mac1609_4 	SNIRLostPackets 	0
scalar IntersectionExampleScenario.node[31].nic.mac1609_4 	RXTXLostPackets 	0
scalar IntersectionExampleScenario.node[31].nic.mac1609_4 	TotalLostPackets 	0
scalar IntersectionExampleScenario.node[31].nic.mac1609_4 	DroppedPacketsInMac 	0
scalar IntersectionExampleScenario.node[31].nic.mac1609_4 	TooLittleTime 	0
scalar IntersectionExampleScenario.node[31].nic.mac1609_4 	TimesIntoBackoff 	0
scalar IntersectionExampleScenario.node[31].nic.mac1609_4 	SlotsBackoff 	0
scalar IntersectionExampleScenario.node[31].nic.mac1609_4 	NumInternalContention 	0
scalar IntersectionExampleScenario.node[31].nic.mac1609_4 	totalBusyTime 	0
scalar IntersectionExampleScenario.node[31].veinsmobility 	startTime 	110
scalar IntersectionExampleScenario.node[31].veinsmobility 	totalTime 	51
scalar IntersectionExampleScenario.node[31].veinsmobility 	stopTime 	161.25
scalar IntersectionExampleScenario.node[31].veinsmobility 	minSpeed 	3.7110660076141
scalar IntersectionExampleScenario.node[31].veinsmobility 	maxSpeed 	14.657852172852
scalar IntersectionExampleScenario.node[31].veinsmobility 	totalDistance 	570.51662166052
scalar IntersectionExampleScenario.node[31].veinsmobility 	totalCO2Emission 	141.93029011355
scalar IntersectionExampleScenario.node[34].appl 	VehicleRemoved 	0
scalar IntersectionExampleScenario.node[34].appl 	ArrivedAtDest 	1
scalar IntersectionExampleScenario.node[34].appl 	IntersectionEnterTime 	122
scalar IntersectionExampleScenario.node[34].appl 	IntersectionExitTime 	146.28902979931
scalar IntersectionExampleScenario.node[34].appl 	NumberOfCollisions 	0
scalar IntersectionExampleScenario.node[34].nic.phy80211p 	busyTime 	0
scalar IntersectionExampleScenario.node[34].nic.mac1609_4 	ReceivedUnicastPackets 	0
scalar IntersectionExampleScenario.node[34].nic.mac1609_4 	ReceivedBroadcasts 	0
scalar IntersectionExampleScenario.node[34].nic.mac1609_4 	SentPackets 	0
scalar IntersectionExampleScenario.node[34].nic.mac1609_4 	SNIRLostPackets 	0
scalar IntersectionExampleScenario.node[34].nic.mac1609_4 	RXTXLostPackets 	0
scalar IntersectionExampleScenario.node[34].nic.mac1609_4 	TotalLostPackets 	0
scalar IntersectionExampleScenario.node[34].nic.mac1609_4 	DroppedPacketsInMac 	0
scalar IntersectionExampleScenario.node[34].nic.mac1609_4 	TooLittleTime 	0
scalar IntersectionExampleScenario.node[34].nic.mac1609_4 	TimesIntoBackoff 	0
scalar IntersectionExampleScenario.node[34].nic.mac1609_4 	SlotsBackoff 	0
scalar IntersectionExampleScenario.node[34].nic.mac1609_4 	NumInternalContention 	0
scalar IntersectionExampleScenario.node[34].nic.mac1609_4 	totalBusyTime 	0
scalar IntersectionExampleScenario.node[34].veinsmobility 	startTime 	122
scalar IntersectionExampleScenario.node[34].veinsmobility 	totalTime 	40.75
scalar IntersectionExampleScenario.node[34].veinsmobility 	stopTime 	163
scalar IntersectionExampleScenario.node[34].veinsmobility 	minSpeed 	5.6500000953674
scalar IntersectionExampleScenario.node[34].veinsmobility 	maxSpeed 	15.375
scalar IntersectionExampleScenario.node[34].veinsmobility 	totalDistance 	549.89523239452
scalar IntersectionExampleScenario.node[34].veinsmobility 	totalCO2Emission 	133.10344643033
scalar IntersectionExampleScenario.node[36].appl 	VehicleRemoved 	0
scalar IntersectionExampleScenario.node[36].appl 	ArrivedAtDest 	1
scalar IntersectionExampleScenario.node[36].appl 	IntersectionEnterTime 	126
scalar IntersectionExampleScenario.node[36].appl 	IntersectionExitTime 	149.85052076599
scalar IntersectionExampleScenario.node[36].appl 	NumberOfCollisions 	0
scalar IntersectionExampleScenario.node[36].nic.phy80211p 	busyTime 	0
scalar IntersectionExampleScenario.node[36].nic.mac1609_4 	ReceivedUnicastPackets 	0
scalar IntersectionExampleScenario.node[36].nic.mac1609_4 	ReceivedBroadcasts 	0
scalar IntersectionExampleScenario.node[36].nic.mac1609_4 	SentPackets 	0
scalar IntersectionExampleScenario.node[36].nic.mac1609_4 	SNIRLostPackets 	0
scalar IntersectionExampleScenario.node[36].nic.mac1609_4 	RXTXLostPackets 	0
scalar IntersectionExampleScenario.node[36].nic.mac1609_4 	TotalLostPackets 	0
scalar IntersectionExampleScenario.node[36].nic.mac1609_4 	DroppedPacketsInMac 	0
scalar IntersectionExampleScenario.node[36].nic.mac1609_4 	TooLittleTime 	0
scalar IntersectionExampleScenario.node[36].nic.mac1609_4 	TimesIntoBackoff 	0
scalar IntersectionExampleScenario.node[36].nic.mac1609_4 	SlotsBackoff 	0
scalar IntersectionExampleScenario.node[36].nic.mac1609_4 	NumInternalContention 	0
scalar IntersectionExampleScenario.node[36].nic.mac1609_4 	totalBusyTime 	0
scalar IntersectionExampleScenario.node[36].veinsmobility 	startTime 	126
scalar IntersectionExampleScenario.node[36].veinsmobility 	totalTime 	40.5
scalar IntersectionExampleScenario.node[36].veinsmobility 	stopTime 	166.75
scalar IntersectionExampleScenario.node[36].veinsmobility 	minSpeed 	5.6500000953674
scalar IntersectionExampleScenario.node[36].veinsmobility 	maxSpeed 	15.339520454407
scalar IntersectionExampleScenario.node[36].veinsmobility 	totalDistance 	550.54318802245
scalar IntersectionExampleScenario.node[36].veinsmobility 	totalCO2Emission 	127.53336236019
scalar IntersectionExampleScenario.node[38].appl 	VehicleRemoved 	0
scalar IntersectionExampleScenario.node[38].appl 	ArrivedAtDest 	1
scalar IntersectionExampleScenario.node[38].appl 	IntersectionEnterTime 	128
scalar IntersectionExampleScenario.node[38].appl 	IntersectionExitTime 	152.59586529844
scalar IntersectionExampleScenario.node[38].appl 	NumberOfCollisions 	0
scalar IntersectionExampleScenario.node[38].nic.phy80211p 	busyTime 	0
scalar IntersectionExampleScenario.node[38].nic.mac1609_4 	ReceivedUnicastPackets 	0
scalar IntersectionExampleScenario.node[38].nic.mac1609_4 	ReceivedBroadcasts 	0
scalar IntersectionExampleScenario.node[38].nic.mac1609_4 	SentPackets 	0
scalar IntersectionExampleScenario.node[38].nic.mac1609_4 	SNIRLostPackets 	0
scalar IntersectionExampleScenario.node[38].nic.mac1609_4 	RXTXLostPackets 	0
scalar IntersectionExampleScenario.node[38].nic.mac1609_4 	TotalLostPackets 	0
scalar IntersectionExampleScenario.node[38].nic.mac1609_4 	DroppedPacketsInMac 	0
scalar IntersectionExampleScenario.node[38].nic.mac1609_4 	TooLittleTime 	0
scalar IntersectionExampleScenario.node[38].nic.mac1609_4 	TimesIntoBackoff 	0
scalar IntersectionExampleScenario.node[38].nic.mac1609_4 	SlotsBackoff 	0
scalar IntersectionExampleScenario.node[38].nic.mac1609_4 	NumInternalContention 	0
scalar IntersectionExampleScenario.node[38].nic.mac1609_4 	totalBusyTime 	0
scalar IntersectionExampleScenario.node[38].veinsmobility 	startTime 	128
scalar IntersectionExampleScenario.node[38].veinsmobility 	totalTime 	42.25
scalar IntersectionExampleScenario.node[38].veinsmobility 	stopTime 	170.5
scalar IntersectionExampleScenario.node[38].veinsmobility 	minSpeed 	5.6500000953674
scalar IntersectionExampleScenario.node[38].veinsmobility 	maxSpeed 	14.625
scalar IntersectionExampleScenario.node[38].veinsmobility 	totalDistance 	546.78636823728
scalar IntersectionExampleScenario.node[38].veinsmobility 	totalCO2Emission 	120.97103740027
scalar IntersectionExampleScenario.node[39].appl 	VehicleRemoved 	0
scalar IntersectionExampleScenario.node[39].appl 	ArrivedAtDest 	1
scalar IntersectionExampleScenario.node[39].appl 	IntersectionEnterTime 	128.75
scalar IntersectionExampleScenario.node[39].appl 	IntersectionExitTime 	153.81431447089
scalar IntersectionExampleScenario.node[39].appl 	NumberOfCollisions 	0
scalar IntersectionExampleScenario.node[39].nic.phy80211p 	busyTime 	0
scalar IntersectionExampleScenario.node[39].nic.mac1609_4 	ReceivedUnicastPackets 	0
scalar IntersectionExampleScenario.node[39].nic.mac1609_4 	ReceivedBroadcasts 	0
scalar IntersectionExampleScenario.node[39].nic.mac1609_4 	SentPackets 	0
scalar IntersectionExampleScenario.node[39].nic.mac1609_4 	SNIRLostPackets 	0
scalar IntersectionExampleScenario.node[39].nic.mac1609_4 	RXTXLostPackets 	0
scalar IntersectionExampleScenario.node[39].nic.mac1609_4 	TotalLostPackets 	0
scalar IntersectionExampleScenario.node[39].nic.mac1609_4 	DroppedPacketsInMac 	0
scalar IntersectionExampleScenario.node[39].nic.mac1609_4 	TooLittleTime 	0
scalar IntersectionExampleScenario.node[39].nic.mac1609_4 	TimesIntoBackoff 	0
scalar IntersectionExampleScenario.node[39].nic.mac1609_4 	SlotsBackoff 	0
scalar IntersectionExampleScenario.node[39].nic.mac1609_4 	NumInternalContention 	0
scalar IntersectionExampleScenario.node[39].nic.mac1609_4 	totalBusyTime 	0
scalar IntersectionExampleScenario.node[39].veinsmobility 	startTime 	128.75
scalar IntersectionExampleScenario.node[39].veinsmobility 	totalTime 	42.25
scalar IntersectionExampleScenario.node[39].veinsmobility 	stopTime 	171.25
scalar IntersectionExampleScenario.node[39].veinsmobility 	minSpeed 	5.6500000953674
scalar IntersectionExampleScenario.node[39].veinsmobility 	maxSpeed 	16.185585021973
scalar IntersectionExampleScenario.node[39].veinsmobility 	totalDistance 	566.34052620154
scalar IntersectionExampleScenario.node[39].veinsmobility 	totalCO2Emission 	131.63686529102
scalar IntersectionExampleScenario.node[28].appl 	VehicleRemoved 	0
scalar IntersectionExampleScenario.node[28].appl 	ArrivedAtDest 	1
scalar IntersectionExampleScenario.node[28].appl 	IntersectionEnterTime 	108
scalar IntersectionExampleScenario.node[28].appl 	IntersectionExitTime 	156.5754344009
scalar IntersectionExampleScenario.node[28].appl 	NumberOfCollisions 	0
scalar IntersectionExampleScenario.node[28].nic.phy80211p 	busyTime 	0
scalar IntersectionExampleScenario.node[28].nic.mac1609_4 	ReceivedUnicastPackets 	0
scalar IntersectionExampleScenario.node[28].nic.mac1609_4 	ReceivedBroadcasts 	0
scalar IntersectionExampleScenario.node[28].nic.mac1609_4 	SentPackets 	0
scalar IntersectionExampleScenario.node[28].nic.mac1609_4 	SNIRLostPackets 	0
scalar IntersectionExampleScenario.node[28].nic.mac1609_4 	RXTXLostPackets 	0
scalar IntersectionExampleScenario.node[28].nic.mac1609_4 	TotalLostPackets 	0
scalar IntersectionExampleScenario.node[28].nic.mac1609_4 	DroppedPacketsInMac 	0
scalar IntersectionExampleScenario.node[28].nic.mac1609_4 	TooLittleTime 	0
scalar IntersectionExampleScenario.node[28].nic.mac1609_4 	TimesIntoBackoff 	0
scalar IntersectionExampleScenario.node[28].nic.mac1609_4 	SlotsBackoff 	0
scalar IntersectionExampleScenario.node[28].nic.mac1609_4 	NumInternalContention 	0
scalar IntersectionExampleScenario.node[28].nic.mac1609_4 	totalBusyTime 	0
scalar IntersectionExampleScenario.node[28].veinsmobility 	startTime 	108
scalar IntersectionExampleScenario.node[28].veinsmobility 	totalTime 	64.75
scalar IntersectionExampleScenario.node[28].veinsmobility 	stopTime 	173
scalar IntersectionExampleScenario.node[28].veinsmobility 	minSpeed 	0
scalar IntersectionExampleScenario.node[28].veinsmobility 	maxSpeed 	15.64999961853
scalar IntersectionExampleScenario.node[28].veinsmobility 	totalDistance 	554.37419128418
scalar IntersectionExampleScenario.node[28].veinsmobility 	totalCO2Emission 	157.61559626755
scalar IntersectionExampleScenario.node[29].appl 	VehicleRemoved 	0
scalar IntersectionExampleScenario.node[29].appl 	ArrivedAtDest 	1
scalar IntersectionExampleScenario.node[29].appl 	IntersectionEnterTime 	109
scalar IntersectionExampleScenario.node[29].appl 	IntersectionExitTime 	158.56979339666
scalar IntersectionExampleScenario.node[29].appl 	NumberOfCollisions 	0
scalar IntersectionExampleScenario.node[29].nic.phy80211p 	busyTime 	0
scalar IntersectionExampleScenario.node[29].nic.mac1609_4 	ReceivedUnicastPackets 	0
scalar IntersectionExampleScenario.node[29].nic.mac1609_4 	ReceivedBroadcasts 	0
scalar IntersectionExampleScenario.node[29].nic.mac1609_4 	SentPackets 	0
scalar IntersectionExampleScenario.node[29].nic.mac1609_4 	SNIRLostPackets 	0
scalar IntersectionExampleScenario.node[29].nic.mac1609_4 	RXTXLostPackets 	0
scalar IntersectionExampleScenario.node[29].nic.mac1609_4 	TotalLostPackets 	0
scalar IntersectionExampleScenario.node[29].nic.mac1609_4 	DroppedPacketsInMac 	0
scalar IntersectionExampleScenario.node[29].nic.mac1609_4 	TooLittleTime 	0
scalar IntersectionExampleScenario.node[29].nic.mac1609_4 	TimesIntoBackoff 	0
scalar IntersectionExampleScenario.node[29].nic.mac1609_4 	SlotsBackoff 	0
scalar IntersectionExampleScenario.node[29].nic.mac1609_4 	NumInternalContention 	0
scalar IntersectionExampleScenario.node[29].nic.mac1609_4 	totalBusyTime 	0
scalar IntersectionExampleScenario.node[29].veinsmobility 	startTime 	109
scalar IntersectionExampleScenario.node[29].veinsmobility 	totalTime 	65.5
scalar IntersectionExampleScenario.node[29].veinsmobility 	stopTime 	174.75
scalar IntersectionExampleScenario.node[29].veinsmobility 	minSpeed 	0
scalar IntersectionExampleScenario.node[29].veinsmobility 	maxSpeed 	15.64999961853
scalar IntersectionExampleScenario.node[29].veinsmobility 	totalDistance 	575.03204345703
scalar IntersectionExampleScenario.node[29].veinsmobility 	totalCO2Emission 	160.95835356841
scalar IntersectionExampleScenario.node[32].appl 	VehicleRemoved 	0
scalar IntersectionExampleScenario.node[32].appl 	ArrivedAtDest 	1
scalar IntersectionExampleScenario.node[32].appl 	IntersectionEnterTime 	113.25
scalar IntersectionExampleScenario.node[32].appl 	IntersectionExitTime 	160.26320158262
scalar IntersectionExampleScenario.node[32].appl 	NumberOfCollisions 	0
scalar IntersectionExampleScenario.node[32].nic.phy80211p 	busyTime 	0
scalar IntersectionExampleScenario.node[32].nic.mac1609_4 	ReceivedUnicastPackets 	0
scalar IntersectionExampleScenario.node[32].nic.mac1609_4 	ReceivedBroadcasts 	0
scalar IntersectionExampleScenario.node[32].nic.mac1609_4 	SentPackets 	0
scalar IntersectionExampleScenario.node[32].nic.mac1609_4 	SNIRLostPackets 	0
scalar IntersectionExampleScenario.node[32].nic.mac1609_4 	RXTXLostPackets 	0
scalar IntersectionExampleScenario.node[32].nic.mac1609_4 	TotalLostPackets 	0
scalar IntersectionExampleScenario.node[32].nic.mac1609_4 	DroppedPacketsInMac 	0
scalar IntersectionExampleScenario.node[32].nic.mac1609_4 	TooLittleTime 	0
scalar IntersectionExampleScenario.node[32].nic.mac1609_4 	TimesIntoBackoff 	0
scalar IntersectionExampleScenario.node[32].nic.mac1609_4 	SlotsBackoff 	0
scalar IntersectionExampleScenario.node[32].nic.mac1609_4 	NumInternalContention 	0
scalar IntersectionExampleScenario.node[32].nic.mac1609_4 	totalBusyTime 	0
scalar IntersectionExampleScenario.node[32].veinsmobility 	startTime 	113.25
scalar IntersectionExampleScenario.node[32].veinsmobility 	totalTime 	63.25
scalar IntersectionExampleScenario.node[32].veinsmobility 	stopTime 	176.75
scalar IntersectionExampleScenario.node[32].veinsmobility 	minSpeed 	0
scalar IntersectionExampleScenario.node[32].veinsmobility 	maxSpeed 	15.875
scalar IntersectionExampleScenario.node[32].veinsmobility 	totalDistance 	558.27243928802
scalar IntersectionExampleScenario.node[32].veinsmobility 	totalCO2Emission 	158.3781208765
scalar IntersectionExampleScenario.node[35].appl 	VehicleRemoved 	0
scalar IntersectionExampleScenario.node[35].appl 	ArrivedAtDest 	1
scalar IntersectionExampleScenario.node[35].appl 	IntersectionEnterTime 	125.25
scalar IntersectionExampleScenario.node[35].appl 	IntersectionExitTime 	170.31843268292
scalar IntersectionExampleScenario.node[35].appl 	NumberOfCollisions 	0
scalar IntersectionExampleScenario.node[35].nic.phy80211p 	busyTime 	0
scalar IntersectionExampleScenario.node[35].nic.mac1609_4 	ReceivedUnicastPackets 	0
scalar IntersectionExampleScenario.node[35].nic.mac1609_4 	ReceivedBroadcasts 	0
scalar IntersectionExampleScenario.node[35].nic.mac1609_4 	SentPackets 	0
scalar IntersectionExampleScenario.node[35].nic.mac1609_4 	SNIRLostPackets 	0
scalar IntersectionExampleScenario.node[35].nic.mac1609_4 	RXTXLostPackets 	0
scalar IntersectionExampleScenario.node[35].nic.mac1609_4 	TotalLostPackets 	0
scalar IntersectionExampleScenario.node[35].nic.mac1609_4 	DroppedPacketsInMac 	0
scalar IntersectionExampleScenario.node[35].nic.mac1609_4 	TooLittleTime 	0
scalar IntersectionExampleScenario.node[35].nic.mac1609_4 	TimesIntoBackoff 	0
scalar IntersectionExampleScenario.node[35].nic.mac1609_4 	SlotsBackoff 	0
scalar IntersectionExampleScenario.node[35].nic.mac1609_4 	NumInternalContention 	0
scalar IntersectionExampleScenario.node[35].nic.mac1609_4 	totalBusyTime 	0
scalar IntersectionExampleScenario.node[35].veinsmobility 	startTime 	125.25
scalar IntersectionExampleScenario.node[35].veinsmobility 	totalTime 	61
scalar IntersectionExampleScenario.node[35].veinsmobility 	stopTime 	186.5
scalar IntersectionExampleScenario.node[35].veinsmobility 	minSpeed 	0
scalar IntersectionExampleScenario.node[35].veinsmobility 	maxSpeed 	15.64999961853
scalar IntersectionExampleScenario.node[35].veinsmobility 	totalDistance 	548.86372484317
scalar IntersectionExampleScenario.node[35].veinsmobility 	totalCO2Emission 	152.86918159916
scalar IntersectionExampleScenario.node[40].appl 	VehicleRemoved 	0
scalar IntersectionExampleScenario.node[40].appl 	ArrivedAtDest 	1
scalar IntersectionExampleScenario.node[40].appl 	IntersectionEnterTime 	129.25
scalar IntersectionExampleScenario.node[40].appl 	IntersectionExitTime 	172.58608186978
scalar IntersectionExampleScenario.node[40].appl 	NumberOfCollisions 	0
scalar IntersectionExampleScenario.node[40].nic.phy80211p 	busyTime 	0
scalar IntersectionExampleScenario.node[40].nic.mac1609_4 	ReceivedUnicastPackets 	0
scalar IntersectionExampleScenario.node[40].nic.mac1609_4 	ReceivedBroadcasts 	0
scalar IntersectionExampleScenario.node[40].nic.mac1609_4 	SentPackets 	0
scalar IntersectionExampleScenario.node[40].nic.mac1609_4 	SNIRLostPackets 	0
scalar IntersectionExampleScenario.node[40].nic.mac1609_4 	RXTXLostPackets 	0
scalar IntersectionExampleScenario.node[40].nic.mac1609_4 	TotalLostPackets 	0
scalar IntersectionExampleScenario.node[40].nic.mac1609_4 	DroppedPacketsInMac 	0
scalar IntersectionExampleScenario.node[40].nic.mac1609_4 	TooLittleTime 	0
scalar IntersectionExampleScenario.node[40].nic.mac1609_4 	TimesIntoBackoff 	0
scalar IntersectionExampleScenario.node[40].nic.mac1609_4 	SlotsBackoff 	0
[...]
scalar IntersectionExampleScenario.node[534].nic.mac1609_4 	NumInternalContention 	0
scalar IntersectionExampleScenario.node[534].nic.mac1609_4 	totalBusyTime 	0
scalar IntersectionExampleScenario.node[534].veinsmobility 	startTime 	1742.5
scalar IntersectionExampleScenario.node[534].veinsmobility 	totalTime 	53.75
scalar IntersectionExampleScenario.node[534].veinsmobility 	stopTime 	1796.5
scalar IntersectionExampleScenario.node[534].veinsmobility 	minSpeed 	0
scalar IntersectionExampleScenario.node[534].veinsmobility 	maxSpeed 	15.875
scalar IntersectionExampleScenario.node[534].veinsmobility 	totalDistance 	545.3622540915
scalar IntersectionExampleScenario.node[534].veinsmobility 	totalCO2Emission 	145.25803881651
scalar IntersectionExampleScenario.manager 	EndTime 	1591407637
scalar IntersectionExampleScenario.manager 	StartTime 	1591407453
scalar IntersectionExampleScenario.manager 	TotalDuration 	184
scalar IntersectionExampleScenario.manager 	TotalFlux 	18.033333333333
scalar IntersectionExampleScenario.manager 	Direction-South-Flux 	4.0333333333333
scalar IntersectionExampleScenario.manager 	Direction-West-Flux 	4.7666666666667
scalar IntersectionExampleScenario.manager 	Direction-North-Flux 	4.8
scalar IntersectionExampleScenario.manager 	Direction-East-Flux 	4.4333333333333
scalar IntersectionExampleScenario.manager 	TotalMeanTime 	37.085374054702
scalar IntersectionExampleScenario.manager 	Direction-South-MeanTime 	33.581387055547
scalar IntersectionExampleScenario.manager 	Direction-West-MeanTime 	40.476448694449
scalar IntersectionExampleScenario.manager 	Direction-North-MeanTime 	35.033250396547
scalar IntersectionExampleScenario.manager 	Direction-East-MeanTime 	38.849017364387
scalar IntersectionExampleScenario.manager 	TotalStandardDeviation 	11.087514421965
scalar IntersectionExampleScenario.manager 	Direction-South-StDev 	9.7117460390342
scalar IntersectionExampleScenario.manager 	Direction-West-StDev 	12.133387197334
scalar IntersectionExampleScenario.manager 	Direction-North-StDev 	9.9333938242444
scalar IntersectionExampleScenario.manager 	Direction-East-StDev 	10.858964126326
scalar IntersectionExampleScenario.node[536].appl 	VehicleRemoved 	0
scalar IntersectionExampleScenario.node[536].appl 	ArrivedAtDest 	0
scalar IntersectionExampleScenario.node[536].appl 	IntersectionEnterTime 	1749
scalar IntersectionExampleScenario.node[536].appl 	IntersectionExitTime 	-1
scalar IntersectionExampleScenario.node[536].appl 	NumberOfCollisions 	0
scalar IntersectionExampleScenario.node[536].nic.phy80211p 	busyTime 	0
scalar IntersectionExampleScenario.node[536].nic.mac1609_4 	ReceivedUnicastPackets 	0
scalar IntersectionExampleScenario.node[536].nic.mac1609_4 	ReceivedBroadcasts 	0
scalar IntersectionExampleScenario.node[536].nic.mac1609_4 	SentPackets 	0
scalar IntersectionExampleScenario.node[536].nic.mac1609_4 	SNIRLostPackets 	0
scalar IntersectionExampleScenario.node[536].nic.mac1609_4 	RXTXLostPackets 	0
scalar IntersectionExampleScenario.node[536].nic.mac1609_4 	TotalLostPackets 	0
scalar IntersectionExampleScenario.node[536].nic.mac1609_4 	DroppedPacketsInMac 	0
scalar IntersectionExampleScenario.node[536].nic.mac1609_4 	TooLittleTime 	0
scalar IntersectionExampleScenario.node[536].nic.mac1609_4 	TimesIntoBackoff 	0
scalar IntersectionExampleScenario.node[536].nic.mac1609_4 	SlotsBackoff 	0
scalar IntersectionExampleScenario.node[536].nic.mac1609_4 	NumInternalContention 	0
scalar IntersectionExampleScenario.node[536].nic.mac1609_4 	totalBusyTime 	0
scalar IntersectionExampleScenario.node[536].veinsmobility 	startTime 	1749
scalar IntersectionExampleScenario.node[536].veinsmobility 	totalTime 	51
scalar IntersectionExampleScenario.node[536].veinsmobility 	stopTime 	1800
scalar IntersectionExampleScenario.node[536].veinsmobility 	minSpeed 	0
scalar IntersectionExampleScenario.node[536].veinsmobility 	maxSpeed 	15.02499961853
scalar IntersectionExampleScenario.node[536].veinsmobility 	totalDistance 	287.42188262939
scalar IntersectionExampleScenario.node[536].veinsmobility 	totalCO2Emission 	99.195343166339
scalar IntersectionExampleScenario.node[537].appl 	VehicleRemoved 	0
scalar IntersectionExampleScenario.node[537].appl 	ArrivedAtDest 	0
scalar IntersectionExampleScenario.node[537].appl 	IntersectionEnterTime 	1756.5
scalar IntersectionExampleScenario.node[537].appl 	IntersectionExitTime 	1790.2900341694
scalar IntersectionExampleScenario.node[537].appl 	NumberOfCollisions 	0
scalar IntersectionExampleScenario.node[537].nic.phy80211p 	busyTime 	0
scalar IntersectionExampleScenario.node[537].nic.mac1609_4 	ReceivedUnicastPackets 	0
scalar IntersectionExampleScenario.node[537].nic.mac1609_4 	ReceivedBroadcasts 	0
scalar IntersectionExampleScenario.node[537].nic.mac1609_4 	SentPackets 	0
scalar IntersectionExampleScenario.node[537].nic.mac1609_4 	SNIRLostPackets 	0
scalar IntersectionExampleScenario.node[537].nic.mac1609_4 	RXTXLostPackets 	0
scalar IntersectionExampleScenario.node[537].nic.mac1609_4 	TotalLostPackets 	0
scalar IntersectionExampleScenario.node[537].nic.mac1609_4 	DroppedPacketsInMac 	0
scalar IntersectionExampleScenario.node[537].nic.mac1609_4 	TooLittleTime 	0
scalar IntersectionExampleScenario.node[537].nic.mac1609_4 	TimesIntoBackoff 	0
scalar IntersectionExampleScenario.node[537].nic.mac1609_4 	SlotsBackoff 	0
scalar IntersectionExampleScenario.node[537].nic.mac1609_4 	NumInternalContention 	0
scalar IntersectionExampleScenario.node[537].nic.mac1609_4 	totalBusyTime 	0
scalar IntersectionExampleScenario.node[537].veinsmobility 	startTime 	1756.5
scalar IntersectionExampleScenario.node[537].veinsmobility 	totalTime 	43.5
scalar IntersectionExampleScenario.node[537].veinsmobility 	stopTime 	1800
scalar IntersectionExampleScenario.node[537].veinsmobility 	minSpeed 	0
scalar IntersectionExampleScenario.node[537].veinsmobility 	maxSpeed 	16
scalar IntersectionExampleScenario.node[537].veinsmobility 	totalDistance 	456.98823656192
scalar IntersectionExampleScenario.node[537].veinsmobility 	totalCO2Emission 	131.5103508753
scalar IntersectionExampleScenario.node[538].appl 	VehicleRemoved 	0
scalar IntersectionExampleScenario.node[538].appl 	ArrivedAtDest 	0
scalar IntersectionExampleScenario.node[538].appl 	IntersectionEnterTime 	1764.5
scalar IntersectionExampleScenario.node[538].appl 	IntersectionExitTime 	1792.2637951116
scalar IntersectionExampleScenario.node[538].appl 	NumberOfCollisions 	0
scalar IntersectionExampleScenario.node[538].nic.phy80211p 	busyTime 	0
scalar IntersectionExampleScenario.node[538].nic.mac1609_4 	ReceivedUnicastPackets 	0
scalar IntersectionExampleScenario.node[538].nic.mac1609_4 	ReceivedBroadcasts 	0
scalar IntersectionExampleScenario.node[538].nic.mac1609_4 	SentPackets 	0
scalar IntersectionExampleScenario.node[538].nic.mac1609_4 	SNIRLostPackets 	0
scalar IntersectionExampleScenario.node[538].nic.mac1609_4 	RXTXLostPackets 	0
scalar IntersectionExampleScenario.node[538].nic.mac1609_4 	TotalLostPackets 	0
scalar IntersectionExampleScenario.node[538].nic.mac1609_4 	DroppedPacketsInMac 	0
scalar IntersectionExampleScenario.node[538].nic.mac1609_4 	TooLittleTime 	0
scalar IntersectionExampleScenario.node[538].nic.mac1609_4 	TimesIntoBackoff 	0
scalar IntersectionExampleScenario.node[538].nic.mac1609_4 	SlotsBackoff 	0
scalar IntersectionExampleScenario.node[538].nic.mac1609_4 	NumInternalContention 	0
scalar IntersectionExampleScenario.node[538].nic.mac1609_4 	totalBusyTime 	0
scalar IntersectionExampleScenario.node[538].veinsmobility 	startTime 	1764.5
scalar IntersectionExampleScenario.node[538].veinsmobility 	totalTime 	35.5
scalar IntersectionExampleScenario.node[538].veinsmobility 	stopTime 	1800
scalar IntersectionExampleScenario.node[538].veinsmobility 	minSpeed 	4.3168754577637
scalar IntersectionExampleScenario.node[538].veinsmobility 	maxSpeed 	15.875
scalar IntersectionExampleScenario.node[538].veinsmobility 	totalDistance 	409.91968110647
scalar IntersectionExampleScenario.node[538].veinsmobility 	totalCO2Emission 	118.77913504867
scalar IntersectionExampleScenario.node[539].appl 	VehicleRemoved 	0
scalar IntersectionExampleScenario.node[539].appl 	ArrivedAtDest 	0
scalar IntersectionExampleScenario.node[539].appl 	IntersectionEnterTime 	1769
scalar IntersectionExampleScenario.node[539].appl 	IntersectionExitTime 	1795.3616473819
scalar IntersectionExampleScenario.node[539].appl 	NumberOfCollisions 	0
scalar IntersectionExampleScenario.node[539].nic.phy80211p 	busyTime 	0
scalar IntersectionExampleScenario.node[539].nic.mac1609_4 	ReceivedUnicastPackets 	0
scalar IntersectionExampleScenario.node[539].nic.mac1609_4 	ReceivedBroadcasts 	0
scalar IntersectionExampleScenario.node[539].nic.mac1609_4 	SentPackets 	0
scalar IntersectionExampleScenario.node[539].nic.mac1609_4 	SNIRLostPackets 	0
scalar IntersectionExampleScenario.node[539].nic.mac1609_4 	RXTXLostPackets 	0
scalar IntersectionExampleScenario.node[539].nic.mac1609_4 	TotalLostPackets 	0
scalar IntersectionExampleScenario.node[539].nic.mac1609_4 	DroppedPacketsInMac 	0
scalar IntersectionExampleScenario.node[539].nic.mac1609_4 	TooLittleTime 	0
scalar IntersectionExampleScenario.node[539].nic.mac1609_4 	TimesIntoBackoff 	0
scalar IntersectionExampleScenario.node[539].nic.mac1609_4 	SlotsBackoff 	0
scalar IntersectionExampleScenario.node[539].nic.mac1609_4 	NumInternalContention 	0
scalar IntersectionExampleScenario.node[539].nic.mac1609_4 	totalBusyTime 	0
scalar IntersectionExampleScenario.node[539].veinsmobility 	startTime 	1769
scalar IntersectionExampleScenario.node[539].veinsmobility 	totalTime 	31
scalar IntersectionExampleScenario.node[539].veinsmobility 	stopTime 	1800
scalar IntersectionExampleScenario.node[539].veinsmobility 	minSpeed 	5.6500000953674
scalar IntersectionExampleScenario.node[539].veinsmobility 	maxSpeed 	15.25
scalar IntersectionExampleScenario.node[539].veinsmobility 	totalDistance 	362.70893556872
scalar IntersectionExampleScenario.node[539].veinsmobility 	totalCO2Emission 	107.35715704082
scalar IntersectionExampleScenario.node[540].appl 	VehicleRemoved 	0
scalar IntersectionExampleScenario.node[540].appl 	ArrivedAtDest 	0
scalar IntersectionExampleScenario.node[540].appl 	IntersectionEnterTime 	1771
scalar IntersectionExampleScenario.node[540].appl 	IntersectionExitTime 	1796.5112644717
scalar IntersectionExampleScenario.node[540].appl 	NumberOfCollisions 	0
scalar IntersectionExampleScenario.node[540].nic.phy80211p 	busyTime 	0
scalar IntersectionExampleScenario.node[540].nic.mac1609_4 	ReceivedUnicastPackets 	0
scalar IntersectionExampleScenario.node[540].nic.mac1609_4 	ReceivedBroadcasts 	0
scalar IntersectionExampleScenario.node[540].nic.mac1609_4 	SentPackets 	0
scalar IntersectionExampleScenario.node[540].nic.mac1609_4 	SNIRLostPackets 	0
scalar IntersectionExampleScenario.node[540].nic.mac1609_4 	RXTXLostPackets 	0
scalar IntersectionExampleScenario.node[540].nic.mac1609_4 	TotalLostPackets 	0
scalar IntersectionExampleScenario.node[540].nic.mac1609_4 	DroppedPacketsInMac 	0
scalar IntersectionExampleScenario.node[540].nic.mac1609_4 	TooLittleTime 	0
scalar IntersectionExampleScenario.node[540].nic.mac1609_4 	TimesIntoBackoff 	0
scalar IntersectionExampleScenario.node[540].nic.mac1609_4 	SlotsBackoff 	0
scalar IntersectionExampleScenario.node[540].nic.mac1609_4 	NumInternalContention 	0
scalar IntersectionExampleScenario.node[540].nic.mac1609_4 	totalBusyTime 	0
scalar IntersectionExampleScenario.node[540].veinsmobility 	startTime 	1771
scalar IntersectionExampleScenario.node[540].veinsmobility 	totalTime 	29
scalar IntersectionExampleScenario.node[540].veinsmobility 	stopTime 	1800
scalar IntersectionExampleScenario.node[540].veinsmobility 	minSpeed 	5.6500000953674
scalar IntersectionExampleScenario.node[540].veinsmobility 	maxSpeed 	16.125
scalar IntersectionExampleScenario.node[540].veinsmobility 	totalDistance 	381.55597686768
scalar IntersectionExampleScenario.node[540].veinsmobility 	totalCO2Emission 	107.60783505297
scalar IntersectionExampleScenario.node[541].appl 	VehicleRemoved 	0
scalar IntersectionExampleScenario.node[541].appl 	ArrivedAtDest 	0
scalar IntersectionExampleScenario.node[541].appl 	IntersectionEnterTime 	1774.5
scalar IntersectionExampleScenario.node[541].appl 	IntersectionExitTime 	-1
scalar IntersectionExampleScenario.node[541].appl 	NumberOfCollisions 	0
scalar IntersectionExampleScenario.node[541].nic.phy80211p 	busyTime 	0
scalar IntersectionExampleScenario.node[541].nic.mac1609_4 	ReceivedUnicastPackets 	0
scalar IntersectionExampleScenario.node[541].nic.mac1609_4 	ReceivedBroadcasts 	0
scalar IntersectionExampleScenario.node[541].nic.mac1609_4 	SentPackets 	0
scalar IntersectionExampleScenario.node[541].nic.mac1609_4 	SNIRLostPackets 	0
scalar IntersectionExampleScenario.node[541].nic.mac1609_4 	RXTXLostPackets 	0
scalar IntersectionExampleScenario.node[541].nic.mac1609_4 	TotalLostPackets 	0
scalar IntersectionExampleScenario.node[541].nic.mac1609_4 	DroppedPacketsInMac 	0
scalar IntersectionExampleScenario.node[541].nic.mac1609_4 	TooLittleTime 	0
scalar IntersectionExampleScenario.node[541].nic.mac1609_4 	TimesIntoBackoff 	0
scalar IntersectionExampleScenario.node[541].nic.mac1609_4 	SlotsBackoff 	0
scalar IntersectionExampleScenario.node[541].nic.mac1609_4 	NumInternalContention 	0
scalar IntersectionExampleScenario.node[541].nic.mac1609_4 	totalBusyTime 	0
scalar IntersectionExampleScenario.node[541].veinsmobility 	startTime 	1774.5
scalar IntersectionExampleScenario.node[541].veinsmobility 	totalTime 	25.5
scalar IntersectionExampleScenario.node[541].veinsmobility 	stopTime 	1800
scalar IntersectionExampleScenario.node[541].veinsmobility 	minSpeed 	2.5321817398071
scalar IntersectionExampleScenario.node[541].veinsmobility 	maxSpeed 	14.39999961853
scalar IntersectionExampleScenario.node[541].veinsmobility 	totalDistance 	272.78687286377
scalar IntersectionExampleScenario.node[541].veinsmobility 	totalCO2Emission 	61.434099340774
scalar IntersectionExampleScenario.node[542].appl 	VehicleRemoved 	0
scalar IntersectionExampleScenario.node[542].appl 	ArrivedAtDest 	0
scalar IntersectionExampleScenario.node[542].appl 	IntersectionEnterTime 	1774.75
scalar IntersectionExampleScenario.node[542].appl 	IntersectionExitTime 	1799.8279984573
scalar IntersectionExampleScenario.node[542].appl 	NumberOfCollisions 	0
scalar IntersectionExampleScenario.node[542].nic.phy80211p 	busyTime 	0
scalar IntersectionExampleScenario.node[542].nic.mac1609_4 	ReceivedUnicastPackets 	0
scalar IntersectionExampleScenario.node[542].nic.mac1609_4 	ReceivedBroadcasts 	0
scalar IntersectionExampleScenario.node[542].nic.mac1609_4 	SentPackets 	0
scalar IntersectionExampleScenario.node[542].nic.mac1609_4 	SNIRLostPackets 	0
scalar IntersectionExampleScenario.node[542].nic.mac1609_4 	RXTXLostPackets 	0
scalar IntersectionExampleScenario.node[542].nic.mac1609_4 	TotalLostPackets 	0
scalar IntersectionExampleScenario.node[542].nic.mac1609_4 	DroppedPacketsInMac 	0
scalar IntersectionExampleScenario.node[542].nic.mac1609_4 	TooLittleTime 	0
scalar IntersectionExampleScenario.node[542].nic.mac1609_4 	TimesIntoBackoff 	0
scalar IntersectionExampleScenario.node[542].nic.mac1609_4 	SlotsBackoff 	0
scalar IntersectionExampleScenario.node[542].nic.mac1609_4 	NumInternalContention 	0
scalar IntersectionExampleScenario.node[542].nic.mac1609_4 	totalBusyTime 	0
scalar IntersectionExampleScenario.node[542].veinsmobility 	startTime 	1774.75
scalar IntersectionExampleScenario.node[542].veinsmobility 	totalTime 	25.25
scalar IntersectionExampleScenario.node[542].veinsmobility 	stopTime 	1800
scalar IntersectionExampleScenario.node[542].veinsmobility 	minSpeed 	5.6500000953674
scalar IntersectionExampleScenario.node[542].veinsmobility 	maxSpeed 	15.64999961853
scalar IntersectionExampleScenario.node[542].veinsmobility 	totalDistance 	323.53180084051
scalar IntersectionExampleScenario.node[542].veinsmobility 	totalCO2Emission 	72.864324944334
scalar IntersectionExampleScenario.node[543].appl 	VehicleRemoved 	0
scalar IntersectionExampleScenario.node[543].appl 	ArrivedAtDest 	0
scalar IntersectionExampleScenario.node[543].appl 	IntersectionEnterTime 	1779.75
scalar IntersectionExampleScenario.node[543].appl 	IntersectionExitTime 	-1
scalar IntersectionExampleScenario.node[543].appl 	NumberOfCollisions 	0
scalar IntersectionExampleScenario.node[543].nic.phy80211p 	busyTime 	0
scalar IntersectionExampleScenario.node[543].nic.mac1609_4 	ReceivedUnicastPackets 	0
scalar IntersectionExampleScenario.node[543].nic.mac1609_4 	ReceivedBroadcasts 	0
scalar IntersectionExampleScenario.node[543].nic.mac1609_4 	SentPackets 	0
scalar IntersectionExampleScenario.node[543].nic.mac1609_4 	SNIRLostPackets 	0
scalar IntersectionExampleScenario.node[543].nic.mac1609_4 	RXTXLostPackets 	0
scalar IntersectionExampleScenario.node[543].nic.mac1609_4 	TotalLostPackets 	0
scalar IntersectionExampleScenario.node[543].nic.mac1609_4 	DroppedPacketsInMac 	0
scalar IntersectionExampleScenario.node[543].nic.mac1609_4 	TooLittleTime 	0
scalar IntersectionExampleScenario.node[543].nic.mac1609_4 	TimesIntoBackoff 	0
scalar IntersectionExampleScenario.node[543].nic.mac1609_4 	SlotsBackoff 	0
scalar IntersectionExampleScenario.node[543].nic.mac1609_4 	NumInternalContention 	0
scalar IntersectionExampleScenario.node[543].nic.mac1609_4 	totalBusyTime 	0
scalar IntersectionExampleScenario.node[543].veinsmobility 	startTime 	1779.75
scalar IntersectionExampleScenario.node[543].veinsmobility 	totalTime 	20.25
scalar IntersectionExampleScenario.node[543].veinsmobility 	stopTime 	1800
scalar IntersectionExampleScenario.node[543].veinsmobility 	minSpeed 	5.6500000953674
scalar IntersectionExampleScenario.node[543].veinsmobility 	maxSpeed 	15.64999961853
scalar IntersectionExampleScenario.node[543].veinsmobility 	totalDistance 	280.42031860352
scalar IntersectionExampleScenario.node[543].veinsmobility 	totalCO2Emission 	64.939975616271
scalar IntersectionExampleScenario.node[544].appl 	VehicleRemoved 	0
scalar IntersectionExampleScenario.node[544].appl 	ArrivedAtDest 	0
scalar IntersectionExampleScenario.node[544].appl 	IntersectionEnterTime 	1786.75
scalar IntersectionExampleScenario.node[544].appl 	IntersectionExitTime 	-1
scalar IntersectionExampleScenario.node[544].appl 	NumberOfCollisions 	0
scalar IntersectionExampleScenario.node[544].nic.phy80211p 	busyTime 	0
scalar IntersectionExampleScenario.node[544].nic.mac1609_4 	ReceivedUnicastPackets 	0
scalar IntersectionExampleScenario.node[544].nic.mac1609_4 	ReceivedBroadcasts 	0
scalar IntersectionExampleScenario.node[544].nic.mac1609_4 	SentPackets 	0
scalar IntersectionExampleScenario.node[544].nic.mac1609_4 	SNIRLostPackets 	0
scalar IntersectionExampleScenario.node[544].nic.mac1609_4 	RXTXLostPackets 	0
scalar IntersectionExampleScenario.node[544].nic.mac1609_4 	TotalLostPackets 	0
scalar IntersectionExampleScenario.node[544].nic.mac1609_4 	DroppedPacketsInMac 	0
scalar IntersectionExampleScenario.node[544].nic.mac1609_4 	TooLittleTime 	0
scalar IntersectionExampleScenario.node[544].nic.mac1609_4 	TimesIntoBackoff 	0
scalar IntersectionExampleScenario.node[544].nic.mac1609_4 	SlotsBackoff 	0
scalar IntersectionExampleScenario.node[544].nic.mac1609_4 	NumInternalContention 	0
scalar IntersectionExampleScenario.node[544].nic.mac1609_4 	totalBusyTime 	0
scalar IntersectionExampleScenario.node[544].veinsmobility 	startTime 	1786.75
scalar IntersectionExampleScenario.node[544].veinsmobility 	totalTime 	13.25
scalar IntersectionExampleScenario.node[544].veinsmobility 	stopTime 	1800
scalar IntersectionExampleScenario.node[544].veinsmobility 	minSpeed 	5.6500000953674
scalar IntersectionExampleScenario.node[544].veinsmobility 	maxSpeed 	15.64999961853
scalar IntersectionExampleScenario.node[544].veinsmobility 	totalDistance 	180.68952178955
scalar IntersectionExampleScenario.node[544].veinsmobility 	totalCO2Emission 	51.416720763403
