file 21997087 1591408330                                        
version 2
run nodebug-32-20200605-21:48:49-20324
attr configname nodebug
attr datetime 20200605-21:48:49
attr experiment nodebug
attr inifile omnetpp.ini
attr iterationvars ""
attr iterationvars2 $repetition=32
attr measurement ""
attr network "\"org.car2x.veins.modules.application.ExtTraCIScenarioManagerLaunchd.IntersectionExampleScenario\""
attr processid 20324
attr repetition 32
attr replication #32
attr resultdir results
attr runnumber 32
attr seedset 32
param **.coreDebug false
param **.debug false
param *.**.nic.mac1609_4.bitrate 18Mbps
param *.**.nic.mac1609_4.txPower 20mW
param *.**.nic.mac1609_4.useServiceChannel false
param *.**.nic.phy80211p.analogueModels "xmldoc(\"config.xml\")"
param *.**.nic.phy80211p.decider "xmldoc(\"config.xml\")"
param *.**.nic.phy80211p.sensitivity -89dBm
param *.**.nic.phy80211p.thermalNoise -110dBm
param *.**.nic.phy80211p.usePropagationDelay true
param *.**.nic.phy80211p.useThermalNoise true
param *.annotations.draw false
param *.connectionManager.alpha 2.0
param *.connectionManager.carrierFrequency "5.890e9 Hz"
param *.connectionManager.pMax 20mW
param *.connectionManager.sat -89dBm
param *.connectionManager.sendDirect true
param *.manager.autoShutdown true
param *.manager.host "\"localhost\""
param *.manager.launchConfig "xmldoc(\"paramics.launchd.xml\")"
param *.manager.margin 25
param *.manager.moduleDisplayString "\"\""
param *.manager.moduleName "\"node\""
param *.manager.moduleType "\"org.car2x.veins.nodes.Car\""
param *.manager.port 9999
param *.manager.updateInterval 250ms
param *.node[*0].veinsmobility.accidentCount 0
param *.node[*0].veinsmobility.accidentDuration 30s
param *.node[*0].veinsmobility.accidentStart 75s
param *.node[*].appl.LiderSelectZoneRadio 55.0
param *.node[*].appl.ShareDataZoneRadio 110.0
param *.node[*].appl.TiempoSemaforo 30.0
param *.node[*].appl.beaconInterval 1s
param *.node[*].appl.beaconPriority 3
param *.node[*].appl.dataOnSch false
param *.node[*].appl.dataPriority 2
param *.node[*].appl.debug false
param *.node[*].appl.headerLength "256 bit"
param *.node[*].appl.maxOffset 0.005s
param *.node[*].appl.sendBeacons false
param *.node[*].appl.sendData true
param *.node[*].applType "\"Dummy\""
param *.node[*].mobilityType "\"TraCIMobility\""
param *.node[*].mobilityType.debug true
param *.node[*].veinsmobility.x 0
param *.node[*].veinsmobility.y 0
param *.node[*].veinsmobility.z 1.895
param *.node[*].veinsmobilityType "\"org.car2x.veins.modules.mobility.traci.TraCIMobility\""
param *.node[*].veinsmobilityType.debug true
param *.playgroundSizeX 8500m
param *.playgroundSizeY 8500m
param *.playgroundSizeZ 50m
param *.world.use2D false
param *.world.useTorus false

vector 31165  IntersectionExampleScenario.manager  vehiclesinsim  ETV
attr type  int
vector 31166  IntersectionExampleScenario.manager  realtime  ETV
attr type  int
attr unit  s
vector 31169  IntersectionExampleScenario.node[0].veinsmobility  posx  ETV
vector 31170  IntersectionExampleScenario.node[0].veinsmobility  posy  ETV
vector 31176  IntersectionExampleScenario.node[1].veinsmobility  posx  ETV
vector 31177  IntersectionExampleScenario.node[1].veinsmobility  posy  ETV
vector 31171  IntersectionExampleScenario.node[0].veinsmobility  speed  ETV
vector 31172  IntersectionExampleScenario.node[0].veinsmobility  acceleration  ETV
vector 31173  IntersectionExampleScenario.node[0].veinsmobility  co2emission  ETV
vector 31178  IntersectionExampleScenario.node[1].veinsmobility  speed  ETV
vector 31179  IntersectionExampleScenario.node[1].veinsmobility  acceleration  ETV
vector 31180  IntersectionExampleScenario.node[1].veinsmobility  co2emission  ETV
vector 31183  IntersectionExampleScenario.node[2].veinsmobility  posx  ETV
vector 31184  IntersectionExampleScenario.node[2].veinsmobility  posy  ETV
vector 31185  IntersectionExampleScenario.node[2].veinsmobility  speed  ETV
vector 31186  IntersectionExampleScenario.node[2].veinsmobility  acceleration  ETV
vector 31187  IntersectionExampleScenario.node[2].veinsmobility  co2emission  ETV
vector 31190  IntersectionExampleScenario.node[3].veinsmobility  posx  ETV
vector 31191  IntersectionExampleScenario.node[3].veinsmobility  posy  ETV
vector 31192  IntersectionExampleScenario.node[3].veinsmobility  speed  ETV
vector 31193  IntersectionExampleScenario.node[3].veinsmobility  acceleration  ETV
vector 31194  IntersectionExampleScenario.node[3].veinsmobility  co2emission  ETV
vector 31197  IntersectionExampleScenario.node[4].veinsmobility  posx  ETV
vector 31198  IntersectionExampleScenario.node[4].veinsmobility  posy  ETV
vector 31199  IntersectionExampleScenario.node[4].veinsmobility  speed  ETV
vector 31200  IntersectionExampleScenario.node[4].veinsmobility  acceleration  ETV
vector 31201  IntersectionExampleScenario.node[4].veinsmobility  co2emission  ETV
vector 31204  IntersectionExampleScenario.node[5].veinsmobility  posx  ETV
vector 31205  IntersectionExampleScenario.node[5].veinsmobility  posy  ETV
vector 31211  IntersectionExampleScenario.node[6].veinsmobility  posx  ETV
vector 31212  IntersectionExampleScenario.node[6].veinsmobility  posy  ETV
vector 31206  IntersectionExampleScenario.node[5].veinsmobility  speed  ETV
vector 31207  IntersectionExampleScenario.node[5].veinsmobility  acceleration  ETV
vector 31208  IntersectionExampleScenario.node[5].veinsmobility  co2emission  ETV
vector 31213  IntersectionExampleScenario.node[6].veinsmobility  speed  ETV
vector 31214  IntersectionExampleScenario.node[6].veinsmobility  acceleration  ETV
vector 31215  IntersectionExampleScenario.node[6].veinsmobility  co2emission  ETV
vector 31218  IntersectionExampleScenario.node[7].veinsmobility  posx  ETV
vector 31219  IntersectionExampleScenario.node[7].veinsmobility  posy  ETV
vector 31225  IntersectionExampleScenario.node[8].veinsmobility  posx  ETV
vector 31226  IntersectionExampleScenario.node[8].veinsmobility  posy  ETV
vector 31220  IntersectionExampleScenario.node[7].veinsmobility  speed  ETV
vector 31221  IntersectionExampleScenario.node[7].veinsmobility  acceleration  ETV
vector 31222  IntersectionExampleScenario.node[7].veinsmobility  co2emission  ETV
vector 31227  IntersectionExampleScenario.node[8].veinsmobility  speed  ETV
vector 31228  IntersectionExampleScenario.node[8].veinsmobility  acceleration  ETV
vector 31229  IntersectionExampleScenario.node[8].veinsmobility  co2emission  ETV
vector 31232  IntersectionExampleScenario.node[9].veinsmobility  posx  ETV
vector 31233  IntersectionExampleScenario.node[9].veinsmobility  posy  ETV
vector 31234  IntersectionExampleScenario.node[9].veinsmobility  speed  ETV
vector 31235  IntersectionExampleScenario.node[9].veinsmobility  acceleration  ETV
vector 31236  IntersectionExampleScenario.node[9].veinsmobility  co2emission  ETV
vector 31239  IntersectionExampleScenario.node[10].veinsmobility  posx  ETV
vector 31240  IntersectionExampleScenario.node[10].veinsmobility  posy  ETV
vector 31241  IntersectionExampleScenario.node[10].veinsmobility  speed  ETV
vector 31242  IntersectionExampleScenario.node[10].veinsmobility  acceleration  ETV
vector 31243  IntersectionExampleScenario.node[10].veinsmobility  co2emission  ETV
vector 31246  IntersectionExampleScenario.node[11].veinsmobility  posx  ETV
vector 31247  IntersectionExampleScenario.node[11].veinsmobility  posy  ETV
vector 31248  IntersectionExampleScenario.node[11].veinsmobility  speed  ETV
vector 31253  IntersectionExampleScenario.node[12].veinsmobility  posx  ETV
vector 31254  IntersectionExampleScenario.node[12].veinsmobility  posy  ETV
vector 31249  IntersectionExampleScenario.node[11].veinsmobility  acceleration  ETV
vector 31250  IntersectionExampleScenario.node[11].veinsmobility  co2emission  ETV
vector 31255  IntersectionExampleScenario.node[12].veinsmobility  speed  ETV
vector 31256  IntersectionExampleScenario.node[12].veinsmobility  acceleration  ETV
vector 31257  IntersectionExampleScenario.node[12].veinsmobility  co2emission  ETV
31180	8099 5810 15 2474 1 50.5 199 0.973 12.099024792222 593.41864310478 3254.6380600884
31179	13909 5338 15 2474 1 50.5 199 -6.9978852272034 4 41.227170944214 492.65880119239
31178	19247 5630 10 2474 0.75 50.5 200 0 16.27499961853 2205.6507912874 32465.664712985
31177	24877 6459 5 2474 0.5 50.5 201 486.85000610352 486.85000610352 97856.851226807 47641608.617041
31176	31336 6444 5 2474 0.5 50.5 201 238.59759521484 785.82187652588 103970.74662018 57772607.982204
vector 31260  IntersectionExampleScenario.node[13].veinsmobility  posx  ETV
vector 31261  IntersectionExampleScenario.node[13].veinsmobility  posy  ETV
vector 31262  IntersectionExampleScenario.node[13].veinsmobility  speed  ETV
vector 31263  IntersectionExampleScenario.node[13].veinsmobility  acceleration  ETV
vector 31264  IntersectionExampleScenario.node[13].veinsmobility  co2emission  ETV
31194	38181 4908 344 2768 15.75 55.25 159 0.973 12.099031698224 579.14806355215 3827.6869808535
31193	43089 4626 344 2768 15.75 55.25 159 -3.8939018249512 2.5 40.038900375366 404.10817562117
31192	47715 4897 335 2768 15.5 55.25 160 5.6500000953674 16.275009155273 2176.887093544 31091.343354025
31191	52612 5249 326 2768 15.25 55.25 161 486.85000610352 731.56315612793 86263.737380981 47114271.192127
31190	57861 5239 326 2768 15.25 55.25 161 486.85000610352 785.82187652588 92210.158485413 54526837.927641
vector 31267  IntersectionExampleScenario.node[14].veinsmobility  posx  ETV
vector 31268  IntersectionExampleScenario.node[14].veinsmobility  posy  ETV
vector 31269  IntersectionExampleScenario.node[14].veinsmobility  speed  ETV
vector 31270  IntersectionExampleScenario.node[14].veinsmobility  acceleration  ETV
vector 31271  IntersectionExampleScenario.node[14].veinsmobility  co2emission  ETV
vector 31274  IntersectionExampleScenario.node[15].veinsmobility  posx  ETV
vector 31275  IntersectionExampleScenario.node[15].veinsmobility  posy  ETV
vector 31276  IntersectionExampleScenario.node[15].veinsmobility  speed  ETV
vector 31277  IntersectionExampleScenario.node[15].veinsmobility  acceleration  ETV
vector 31278  IntersectionExampleScenario.node[15].veinsmobility  co2emission  ETV
31201	63902 4750 528 2922 20.75 57.75 149 0.973 12.099024792222 490.8665080719 2800.7297403766
31200	68652 4572 528 2922 20.75 57.75 149 -3.4942512512207 2.5 41.227170944214 215.5191736139
31199	73224 4661 517 2922 20.5 57.75 150 5.6500000953674 16.27499961853 2215.4963407516 33531.031522109
31198	77885 4948 506 2922 20.25 57.75 151 486.85000610352 486.85000610352 73514.350921631 35790462.194892
31197	82833 4918 506 2922 20.25 57.75 151 237.36596679688 785.82187652588 78922.992073059 45245560.49377
vector 31281  IntersectionExampleScenario.node[16].veinsmobility  posx  ETV
vector 31282  IntersectionExampleScenario.node[16].veinsmobility  posy  ETV
vector 31283  IntersectionExampleScenario.node[16].veinsmobility  speed  ETV
vector 31288  IntersectionExampleScenario.node[17].veinsmobility  posx  ETV
vector 31289  IntersectionExampleScenario.node[17].veinsmobility  posy  ETV
vector 31284  IntersectionExampleScenario.node[16].veinsmobility  acceleration  ETV
vector 31285  IntersectionExampleScenario.node[16].veinsmobility  co2emission  ETV
vector 31290  IntersectionExampleScenario.node[17].veinsmobility  speed  ETV
vector 31291  IntersectionExampleScenario.node[17].veinsmobility  acceleration  ETV
vector 31292  IntersectionExampleScenario.node[17].veinsmobility  co2emission  ETV
vector 31295  IntersectionExampleScenario.node[18].veinsmobility  posx  ETV
vector 31296  IntersectionExampleScenario.node[18].veinsmobility  posy  ETV
vector 31297  IntersectionExampleScenario.node[18].veinsmobility  speed  ETV
vector 31298  IntersectionExampleScenario.node[18].veinsmobility  acceleration  ETV
vector 31299  IntersectionExampleScenario.node[18].veinsmobility  co2emission  ETV
31173	88954 7176 10 3476 0.75 65 258 0.96333723109819 12.099024792222 643.71718753455 3262.4349941634
31172	96130 6594 10 3476 0.75 65 258 -6.7176246643066 4 40.208654403687 481.76706844698
31171	102724 6768 5 3476 0.5 65 259 0 16.27499961853 2211.3687682152 32034.178808988
31170	109492 8384 2 3476 0.25 65 260 483.14999389648 785.82187652588 141101.59459686 78658808.189713
31169	117876 8397 2 3476 0.25 65 260 483.14999389648 735.19940185547 133917.01177979 70104014.068833
31215	126273 5169 758 3545 25.75 65.75 161 0.973 11.200708441096 479.90484969015 2439.5169649674
31214	131442 4666 758 3545 25.75 65.75 161 -4.5 2.5 35.795072555542 222.3435288744
31213	136108 5115 743 3545 25.5 65.75 162 5.6500000953674 15.02499961853 2225.2687635422 31100.41891871
31212	141223 5330 728 3545 25.25 65.75 163 184.17810058594 735.49577331543 73451.017974854 37417125.447863
31211	146553 5364 728 3545 25.25 65.75 163 486.85000610352 486.85000610352 79356.550994873 38634737.336208
31187	151917 6614 249 3718 12.5 67.75 222 0.973 11.450879080643 571.81196122811 2756.1255997658
31186	158531 6970 249 3718 12.5 67.75 222 -3.713475227356 2.5 37.32285118103 318.29208686556
31185	165501 7082 242 3718 12.25 67.75 223 0 15.375 2202.2571514621 28834.246911721
31184	172583 7302 235 3718 12 67.75 224 482.94171142578 785.82187652588 124527.37502289 71180600.478443
31183	179885 7315 235 3718 12 67.75 224 483.14999389648 731.92869567871 116680.56661987 61861759.139109
31229	187200 5247 933 3844 28.5 69.25 164 0.973 11.200708441096 537.20684870204 2771.5383389088
31228	192447 4867 933 3844 28.5 69.25 164 -4.5 2.5 38.850629806519 352.09861380584
31227	197314 5249 914 3844 28.25 69.25 165 4.5247182846069 15.72301197052 2242.57396698 32092.229123173
31226	202563 5451 895 3844 28 69.25 166 169.95465087891 483.1946105957 65171.453979492 27553769.124206
31225	208014 5459 895 3844 28 69.25 166 486.85000610352 733.80171203613 88986.629684448 48640340.475723
31222	213473 5529 914 4075 28.25 72 176 0.973 10.756497587458 527.28372887058 2648.766138091
31221	219002 5534 914 4075 28.25 72 176 -4.5 2.5 34.606801986694 297.62491760029
31220	224536 5805 895 4075 28 72 177 5.6500000953674 14.620992660522 2208.819085598 28693.425655101
31219	230341 5851 878 4075 27.75 72 178 483.14999389648 785.82187652588 101253.91111755 59463925.465935
31218	236192 5852 878 4075 27.75 72 178 483.14999389648 734.27149963379 95034.737182617 51790354.604174
vector 31302  IntersectionExampleScenario.node[19].veinsmobility  posx  ETV
vector 31303  IntersectionExampleScenario.node[19].veinsmobility  posy  ETV
vector 31304  IntersectionExampleScenario.node[19].veinsmobility  speed  ETV
vector 31305  IntersectionExampleScenario.node[19].veinsmobility  acceleration  ETV
vector 31306  IntersectionExampleScenario.node[19].veinsmobility  co2emission  ETV
vector 31309  IntersectionExampleScenario.node[20].veinsmobility  posx  ETV
vector 31310  IntersectionExampleScenario.node[20].veinsmobility  posy  ETV
vector 31311  IntersectionExampleScenario.node[20].veinsmobility  speed  ETV
vector 31312  IntersectionExampleScenario.node[20].veinsmobility  acceleration  ETV
vector 31313  IntersectionExampleScenario.node[20].veinsmobility  co2emission  ETV
31208	242846 6579 743 4847 25.5 81.5 225 0.973 12.099024792222 620.75634970928 3286.9491287493
31207	249425 5737 743 4847 25.5 81.5 225 -9.2126970291138 4 41.396924972534 525.32272029751
31206	255162 6285 728 4847 25.25 81.5 226 0 16.27499961853 2208.8034901619 32581.165845418
31205	261447 7472 715 4847 25 81.5 227 483.14999389648 483.14999389648 109675.0486145 52989499.068693
31204	268919 7434 715 4847 25 81.5 227 184.17810058594 731.91882324219 103292.43887329 51005040.921996
vector 31316  IntersectionExampleScenario.node[21].veinsmobility  posx  ETV
vector 31317  IntersectionExampleScenario.node[21].veinsmobility  posy  ETV
vector 31318  IntersectionExampleScenario.node[21].veinsmobility  speed  ETV
vector 31319  IntersectionExampleScenario.node[21].veinsmobility  acceleration  ETV
vector 31320  IntersectionExampleScenario.node[21].veinsmobility  co2emission  ETV
vector 31323  IntersectionExampleScenario.node[22].veinsmobility  posx  ETV
vector 31324  IntersectionExampleScenario.node[22].veinsmobility  posy  ETV
vector 31325  IntersectionExampleScenario.node[22].veinsmobility  speed  ETV
vector 31326  IntersectionExampleScenario.node[22].veinsmobility  acceleration  ETV
vector 31327  IntersectionExampleScenario.node[22].veinsmobility  co2emission  ETV
vector 31330  IntersectionExampleScenario.node[23].veinsmobility  posx  ETV
vector 31331  IntersectionExampleScenario.node[23].veinsmobility  posy  ETV
vector 31332  IntersectionExampleScenario.node[23].veinsmobility  speed  ETV
vector 31333  IntersectionExampleScenario.node[23].veinsmobility  acceleration  ETV
vector 31334  IntersectionExampleScenario.node[23].veinsmobility  co2emission  ETV
vector 31337  IntersectionExampleScenario.node[24].veinsmobility  posx  ETV
vector 31338  IntersectionExampleScenario.node[24].veinsmobility  posy  ETV
vector 31339  IntersectionExampleScenario.node[24].veinsmobility  speed  ETV
vector 31340  IntersectionExampleScenario.node[24].veinsmobility  acceleration  ETV
vector 31341  IntersectionExampleScenario.node[24].veinsmobility  co2emission  ETV
vector 31344  IntersectionExampleScenario.node[25].veinsmobility  posx  ETV
vector 31345  IntersectionExampleScenario.node[25].veinsmobility  posy  ETV
vector 31346  IntersectionExampleScenario.node[25].veinsmobility  speed  ETV
vector 31347  IntersectionExampleScenario.node[25].veinsmobility  acceleration  ETV
vector 31348  IntersectionExampleScenario.node[25].veinsmobility  co2emission  ETV
vector 31351  IntersectionExampleScenario.node[26].veinsmobility  posx  ETV
vector 31352  IntersectionExampleScenario.node[26].veinsmobility  posy  ETV
vector 31353  IntersectionExampleScenario.node[26].veinsmobility  speed  ETV
vector 31354  IntersectionExampleScenario.node[26].veinsmobility  acceleration  ETV
vector 31355  IntersectionExampleScenario.node[26].veinsmobility  co2emission  ETV
31264	278759 5324 2605 6004 52.5 93.25 164 0.973 10.756497587458 445.73874940028 1965.7337294278
31263	284083 4692 2605 6004 52.5 93.25 164 -2.9462966918945 2.5 33.927785873413 150.14627152007
31262	288775 5239 2588 6004 52.25 93.25 165 5.6500000953674 14.39999961853 2224.8087539673 30421.982095502
31261	294014 5477 2571 6004 52 93.25 166 483.14999389648 483.14999389648 80202.898986816 38750030.155961
31260	299491 5449 2571 6004 52 93.25 166 184.17810058594 735.64221191406 74917.313812256 38240462.75108
vector 31358  IntersectionExampleScenario.node[27].veinsmobility  posx  ETV
vector 31359  IntersectionExampleScenario.node[27].veinsmobility  posy  ETV
vector 31360  IntersectionExampleScenario.node[27].veinsmobility  speed  ETV
vector 31361  IntersectionExampleScenario.node[27].veinsmobility  acceleration  ETV
vector 31362  IntersectionExampleScenario.node[27].veinsmobility  co2emission  ETV
vector 31365  IntersectionExampleScenario.node[28].veinsmobility  posx  ETV
vector 31366  IntersectionExampleScenario.node[28].veinsmobility  posy  ETV
vector 31367  IntersectionExampleScenario.node[28].veinsmobility  speed  ETV
vector 31368  IntersectionExampleScenario.node[28].veinsmobility  acceleration  ETV
vector 31369  IntersectionExampleScenario.node[28].veinsmobility  co2emission  ETV
31236	305742 6862 1587 6339 37.25 96 236 0.973 11.90022389248 614.27045231057 3103.5242570951
31235	312604 6343 1587 6339 37.25 96 236 -9.0596437454224 4 39.359884262085 502.00740959224
31234	318947 6522 1568 6339 37 96 237 0 16 2201.7095313072 31498.966972743
31233	325469 7837 1549 6339 36.75 96 238 237.38928222656 486.85000610352 107637.09854126 49763246.466325
31232	333306 7836 1549 6339 36.75 96 238 483.14999389648 785.82187652588 130268.04155731 73348231.565705
vector 31372  IntersectionExampleScenario.node[29].veinsmobility  posx  ETV
vector 31373  IntersectionExampleScenario.node[29].veinsmobility  posy  ETV
vector 31374  IntersectionExampleScenario.node[29].veinsmobility  speed  ETV
vector 31375  IntersectionExampleScenario.node[29].veinsmobility  acceleration  ETV
vector 31376  IntersectionExampleScenario.node[29].veinsmobility  co2emission  ETV
31271	341543 5111 2811 6483 56 97.25 166 0.95785320846514 12.44402232946 558.25157154184 3392.1681936031
31270	346654 5007 2811 6483 56 97.25 166 -4.0261573791504 2.5 42.075933456421 321.11658685744
31269	351661 5241 2796 6483 55.75 97.25 167 4.9215369224548 16.75 2224.9646878242 31848.245286602
31268	356902 5544 2781 6483 55.5 97.25 168 486.85000610352 486.85000610352 81790.801025391 39819851.978423
31267	362446 5528 2781 6483 55.5 97.25 168 235.55969238281 785.82187652588 88033.757484436 50138177.363318
vector 31379  IntersectionExampleScenario.node[30].veinsmobility  posx  ETV
vector 31380  IntersectionExampleScenario.node[30].veinsmobility  posy  ETV
vector 31381  IntersectionExampleScenario.node[30].veinsmobility  speed  ETV
vector 31382  IntersectionExampleScenario.node[30].veinsmobility  acceleration  ETV
vector 31383  IntersectionExampleScenario.node[30].veinsmobility  co2emission  ETV
31292	368375 4918 3258 6974 62.5 101.5 157 0.973 12.099024792222 567.43402925603 3742.4962771376
31291	373293 4684 3258 6974 62.5 101.5 157 -3.445613861084 2.5 40.887662887573 345.03698010149
31290	377977 4923 3237 6974 62.25 101.5 158 5.6500000953674 16.27499961853 2207.7295980453 31983.255317845
31289	382900 5248 3216 6974 62 101.5 159 236.93292236328 486.85000610352 69321.619110107 31156397.483201
31288	388148 5242 3216 6974 62 101.5 159 483.14999389648 785.82187652588 91073.344398499 53909965.703662
vector 31386  IntersectionExampleScenario.node[31].veinsmobility  posx  ETV
vector 31387  IntersectionExampleScenario.node[31].veinsmobility  posy  ETV
vector 31388  IntersectionExampleScenario.node[31].veinsmobility  speed  ETV
vector 31393  IntersectionExampleScenario.node[32].veinsmobility  posx  ETV
vector 31394  IntersectionExampleScenario.node[32].veinsmobility  posy  ETV
vector 31389  IntersectionExampleScenario.node[31].veinsmobility  acceleration  ETV
vector 31390  IntersectionExampleScenario.node[31].veinsmobility  co2emission  ETV
vector 31395  IntersectionExampleScenario.node[32].veinsmobility  speed  ETV
vector 31396  IntersectionExampleScenario.node[32].veinsmobility  acceleration  ETV
vector 31397  IntersectionExampleScenario.node[32].veinsmobility  co2emission  ETV
31243	394192 7410 2159 7935 45.75 110 258 0.973 11.90022389248 640.08195997981 3154.7602768124
31242	401602 6920 2159 7935 45.75 110 258 -9.1694145202637 4 39.869146347046 517.33089973551
31241	408522 6954 2142 7935 45.5 110 259 0 16 2205.4612402916 31847.623253356
31240	415476 8611 2125 7935 45.25 110 260 483.14999389648 785.82187652588 141165.98677826 78737404.228676
31239	424087 8615 2125 7935 45.25 110 260 483.14999389648 734.16282653809 133891.03385925 70069121.132109
vector 31400  IntersectionExampleScenario.node[33].veinsmobility  posx  ETV
vector 31401  IntersectionExampleScenario.node[33].veinsmobility  posy  ETV
vector 31407  IntersectionExampleScenario.node[34].veinsmobility  posx  ETV
vector 31408  IntersectionExampleScenario.node[34].veinsmobility  posy  ETV
vector 31402  IntersectionExampleScenario.node[33].veinsmobility  speed  ETV
vector 31414  IntersectionExampleScenario.node[35].veinsmobility  posx  ETV
vector 31415  IntersectionExampleScenario.node[35].veinsmobility  posy  ETV
vector 31403  IntersectionExampleScenario.node[33].veinsmobility  acceleration  ETV
vector 31404  IntersectionExampleScenario.node[33].veinsmobility  co2emission  ETV
vector 31409  IntersectionExampleScenario.node[34].veinsmobility  speed  ETV
31257	433489 7553 2474 8083 50.5 111.25 244 0.973 11.648172402475 610.66513974463 2964.7822465952
31256	441042 7820 2474 8083 50.5 111.25 244 -3.9457178115845 2.5 38.511121749878 372.47486772288
31255	448862 7940 2457 8083 50.25 111.25 245 0 15.64999961853 2214.7560288114 30542.586481252
31254	456802 8134 2440 8083 50 111.25 246 236.96240234375 785.82187652588 127065.47577667 69775602.021764
31253	464936 8163 2440 8083 50 111.25 246 483.14999389648 483.14999389648 118854.89849854 57424743.484134
vector 31410  IntersectionExampleScenario.node[34].veinsmobility  acceleration  ETV
vector 31411  IntersectionExampleScenario.node[34].veinsmobility  co2emission  ETV
vector 31416  IntersectionExampleScenario.node[35].veinsmobility  speed  ETV
vector 31417  IntersectionExampleScenario.node[35].veinsmobility  acceleration  ETV
vector 31418  IntersectionExampleScenario.node[35].veinsmobility  co2emission  ETV
31250	473515 7286 2440 8278 50 112.75 252 0.973 11.810082123732 632.78395554505 3115.5883994147
31249	480801 6531 2440 8278 50 112.75 252 -6.9388580322266 4 39.869146347046 500.33920264231
31248	487332 6878 2425 8278 49.75 112.75 253 0 15.875 2180.9024100304 31290.616523596
31247	494210 8409 2410 8278 49.5 112.75 254 184.17810058594 483.24322509766 107952.1630249 47930562.150288
31246	502619 8428 2410 8278 49.5 112.75 254 486.85000610352 733.10589599609 131650.68161011 69291627.471331
vector 31421  IntersectionExampleScenario.node[36].veinsmobility  posx  ETV
vector 31422  IntersectionExampleScenario.node[36].veinsmobility  posy  ETV
31285	511201 6451 3216 8583 62 115.25 214 0.973 11.200708441096 569.82289957254 2759.037740148
31284	517652 6939 3216 8583 62 115.25 214 -4.5 2.5 37.15309715271 356.0546044637
31283	524591 7106 3197 8583 61.75 115.25 215 0 15.273811340332 2213.942263633 28546.723877373
31282	531697 7174 3178 8583 61.5 115.25 216 483.11868286133 785.82187652588 120795.9983139 69468310.665255
31281	538871 7177 3178 8583 61.5 115.25 216 483.14999389648 734.66976928711 113041.08148193 60263194.148298
vector 31423  IntersectionExampleScenario.node[36].veinsmobility  speed  ETV
vector 31424  IntersectionExampleScenario.node[36].veinsmobility  acceleration  ETV
vector 31425  IntersectionExampleScenario.node[36].veinsmobility  co2emission  ETV
31299	546295 6475 3430 8707 64.5 116.25 208 0.973 11.54047740176 571.58095486371 2814.2300900165
31298	552770 6504 3430 8707 64.5 116.25 208 -4.5 2.5 36.98334312439 387.43851114368
31297	559274 6742 3407 8707 64.25 116.25 209 1.3978588581085 15.5 2273.3564016819 29683.010689672
31296	566016 6978 3384 8707 64 116.25 210 238.06719970703 801.41563415527 111341.24064636 63582976.118839
31295	572994 6995 3384 8707 64 116.25 210 483.14999389648 483.14999389648 101461.49871826 49021122.486456
31313	579989 5103 4826 9264 81.25 121 160 0.97223939240464 11.648172402475 527.95402934765 3104.9473816282
31312	585092 4713 4826 9264 81.25 121 160 -3.5016078948975 2.5 38.680875778198 311.40296620267
31311	589805 5076 4805 9264 81 121 161 5.6500000953674 15.665790557861 2190.0856127739 31147.149023952
31310	594881 5405 4784 9264 80.75 121 162 184.17810058594 483.14999389648 64453.977966309 27386748.865414
31309	600286 5423 4784 9264 80.75 121 162 486.85000610352 734.94261169434 87137.432281494 47810083.449744
vector 31428  IntersectionExampleScenario.node[37].veinsmobility  posx  ETV
vector 31429  IntersectionExampleScenario.node[37].veinsmobility  posy  ETV
vector 31430  IntersectionExampleScenario.node[37].veinsmobility  speed  ETV
vector 31431  IntersectionExampleScenario.node[37].veinsmobility  acceleration  ETV
vector 31432  IntersectionExampleScenario.node[37].veinsmobility  co2emission  ETV
vector 31435  IntersectionExampleScenario.node[38].veinsmobility  posx  ETV
vector 31436  IntersectionExampleScenario.node[38].veinsmobility  posy  ETV
vector 31437  IntersectionExampleScenario.node[38].veinsmobility  speed  ETV
vector 31438  IntersectionExampleScenario.node[38].veinsmobility  acceleration  ETV
vector 31439  IntersectionExampleScenario.node[38].veinsmobility  co2emission  ETV
31278	606511 8014 2905 9994 57.5 127 279 0.973 11.450879080643 650.82348317057 2855.3613372761
31277	614525 7001 2905 9994 57.5 127 279 -19.903945922852 4 38.511121749878 816.53385618682
31276	621526 7427 2888 9994 57.25 127 280 0 15.375 2186.7887611389 31177.602176131
31275	628953 9374 2871 9994 57 127 281 483.14999389648 734.23628234863 144216.82476807 75176492.591991
31274	638327 9357 2871 9994 57 127 281 184.17810058594 486.85000610352 120734.65701294 54032294.604657
31306	647684 6144 4682 10252 79.5 129.25 200 0.973 11.093806525473 539.38771145512 2614.0511222771
31305	653828 6275 4682 10252 79.5 129.25 200 -2.114574432373 2.5 34.94630241394 294.52109671433
31304	660103 6602 4661 10252 79.25 129.25 201 1.3383946418762 14.875 2221.6434276104 28542.417366854
31303	666705 6792 4640 10252 79 129.25 202 483.14999389648 483.14999389648 97596.29876709 47153651.153639
31302	673497 6743 4640 10252 79 129.25 202 184.17810058594 735.10467529297 90992.000778198 45359465.897784
31320	680240 5941 5027 10387 83.75 130.5 188 0.973 11.52690382504 560.13283622277 2774.4429614022
31319	686181 6184 5027 10387 83.75 130.5 188 -4.5 2.5 39.042798995972 321.28029803257
31318	692365 6179 5006 10387 83.5 130.5 189 3.5704400539398 15.481075286865 2233.0188524723 29691.670921014
31317	698544 6408 4985 10387 83.25 130.5 190 483.14999389648 483.14999389648 91798.498840332 44352444.154413
31316	704952 6383 4985 10387 83.25 130.5 190 179.77789306641 733.21644592285 84395.444824219 41779483.033161
vector 31442  IntersectionExampleScenario.node[39].veinsmobility  posx  ETV
vector 31443  IntersectionExampleScenario.node[39].veinsmobility  posy  ETV
vector 31444  IntersectionExampleScenario.node[39].veinsmobility  speed  ETV
vector 31449  IntersectionExampleScenario.node[40].veinsmobility  posx  ETV
vector 31450  IntersectionExampleScenario.node[40].veinsmobility  posy  ETV
vector 31445  IntersectionExampleScenario.node[39].veinsmobility  acceleration  ETV
vector 31446  IntersectionExampleScenario.node[39].veinsmobility  co2emission  ETV
vector 31451  IntersectionExampleScenario.node[40].veinsmobility  speed  ETV
vector 31452  IntersectionExampleScenario.node[40].veinsmobility  acceleration  ETV
vector 31453  IntersectionExampleScenario.node[40].veinsmobility  co2emission  ETV
31334	712137 6013 5254 10678 86.25 133.25 189 0.973 11.200708441096 535.21270549088 2564.9167293421
31333	718150 5976 5254 10678 86.25 133.25 189 -4.093921661377 2.5 36.304327011108 288.21896745324
31332	724126 6201 5231 10678 86 133.25 190 3.1229069232941 15.02499961853 2292.8942012787 30190.972380282
31331	730327 6462 5207 10678 85.75 133.25 191 483.14999389648 483.14999389648 92281.648834229 44585878.071015
31330	736789 6447 5207 10678 85.75 133.25 191 166.38427734375 734.87799072266 83791.463256836 41471113.844753
vector 31456  IntersectionExampleScenario.node[41].veinsmobility  posx  ETV
vector 31457  IntersectionExampleScenario.node[41].veinsmobility  posy  ETV
vector 31458  IntersectionExampleScenario.node[41].veinsmobility  speed  ETV
vector 31459  IntersectionExampleScenario.node[41].veinsmobility  acceleration  ETV
vector 31460  IntersectionExampleScenario.node[41].veinsmobility  co2emission  ETV
vector 31463  IntersectionExampleScenario.node[42].veinsmobility  posx  ETV
vector 31464  IntersectionExampleScenario.node[42].veinsmobility  posy  ETV
vector 31465  IntersectionExampleScenario.node[42].veinsmobility  speed  ETV
31327	743869 6939 5115 11584 84.75 141.5 228 0.973 11.450879080643 588.29603746452 2825.1448354928
31326	750808 6297 5115 11584 84.75 141.5 228 -8.4870567321777 4 37.15309715271 478.32449572734
31325	757105 6666 5092 11584 84.5 141.5 229 0 15.375 2198.746417284 30558.207844133
31324	763771 7810 5069 11584 84.25 141.5 230 237.33026123047 486.85000610352 103449.05862427 47631736.872333
31323	771581 7804 5069 11584 84.25 141.5 230 483.14999389648 785.82187652588 126531.98802948 71659720.410078
vector 31466  IntersectionExampleScenario.node[42].veinsmobility  acceleration  ETV
vector 31467  IntersectionExampleScenario.node[42].veinsmobility  co2emission  ETV
31369	779554 6027 6189 11709 94.75 142.75 193 0.973 11.810082123732 552.27556736042 2972.9895390571
31368	785581 6289 6189 11709 94.75 142.75 193 -2.1426239013672 2.5000009536743 39.020376205444 312.82638271866
31367	791870 6337 6158 11709 94.5 142.75 194 1.5286111831665 15.875 2181.6809675694 29065.368973184
31366	798207 6662 6126 11709 94.25 142.75 195 486.85000610352 732.10687255859 102964.03009033 55345256.87564
31365	804869 6665 6126 11709 94.25 142.75 195 486.76370239258 785.82187652588 109957.20294952 63816329.107309
vector 31470  IntersectionExampleScenario.node[43].veinsmobility  posx  ETV
vector 31471  IntersectionExampleScenario.node[43].veinsmobility  posy  ETV
31383	811688 6206 6574 11976 98 145.75 192 0.973 11.200708441096 539.27316729092 2700.9792536416
31382	817894 6107 6574 11976 98 145.75 192 -4.5 2.5 35.625318527222 343.28518178691
31381	824001 6345 6543 11976 97.75 145.75 193 3.7897064685822 15.02499961853 2179.3600354195 27692.044611998
31380	830346 6645 6512 11976 97.5 145.75 194 235.84216308594 486.85000610352 85599.508453369 38847181.892782
31379	836991 6652 6512 11976 97.5 145.75 194 483.14999389648 777.86563873291 109421.14281464 63442101.951837
vector 31472  IntersectionExampleScenario.node[43].veinsmobility  speed  ETV
vector 31473  IntersectionExampleScenario.node[43].veinsmobility  acceleration  ETV
vector 31474  IntersectionExampleScenario.node[43].veinsmobility  co2emission  ETV
31376	843890 6493 6483 12094 97.25 147.25 201 0.973 10.82163510763 571.84430890663 2729.4948399795
31375	850383 6368 6483 12094 97.25 147.25 201 -4.5 2.5 38.171613693237 334.35704514331
31374	856751 6681 6454 12094 97 147.25 202 3.8786833286285 15.225352287292 2275.823171854 29035.91468606
31373	863432 6967 6425 12094 96.75 147.25 203 235.51885986328 486.85000610352 90309.146362305 41244982.442824
31372	870399 6955 6425 12094 96.75 147.25 203 483.12118530273 801.41563415527 117440.01637268 70240583.548365
vector 31477  IntersectionExampleScenario.node[44].veinsmobility  posx  ETV
vector 31478  IntersectionExampleScenario.node[44].veinsmobility  posy  ETV
31390	877508 5608 7326 12178 104.75 148.5 176 0.973 11.54047740176 507.09748887748 2729.8711315519
31389	883116 5702 7326 12178 104.75 148.5 176 -2.7998504638672 2.5 37.32285118103 236.87903984211
31388	888818 5861 7299 12178 104.5 148.5 177 5.6500000953674 15.5 2215.9093170166 29244.051057286
31387	894679 6139 7271 12178 104.25 148.5 178 486.85000610352 486.85000610352 86659.301086426 42190081.262853
31386	900818 6126 7271 12178 104.25 148.5 178 237.17108154297 785.82187652588 93519.635414124 53358018.133287
vector 31479  IntersectionExampleScenario.node[44].veinsmobility  speed  ETV
vector 31480  IntersectionExampleScenario.node[44].veinsmobility  acceleration  ETV
vector 31481  IntersectionExampleScenario.node[44].veinsmobility  co2emission  ETV
vector 31484  IntersectionExampleScenario.node[45].veinsmobility  posx  ETV
vector 31485  IntersectionExampleScenario.node[45].veinsmobility  posy  ETV
vector 31486  IntersectionExampleScenario.node[45].veinsmobility  speed  ETV
vector 31487  IntersectionExampleScenario.node[45].veinsmobility  acceleration  ETV
vector 31488  IntersectionExampleScenario.node[45].veinsmobility  co2emission  ETV
31341	907592 7978 5419 12580 88 155 269 0.973 11.648172402475 650.68192553757 3047.34408095
31340	915570 6979 5419 12580 88 155 269 -24.4079246521 4 39.869146347046 989.32016025513
31339	922549 7397 5394 12580 87.75 155 270 0 15.687612533569 2179.7258672714 31556.056198846
31338	929946 9267 5369 12580 87.5 155 271 486.63604736328 785.82187652588 146861.82048798 81675481.382058
31337	939213 9203 5369 12580 87.5 155 271 236.03692626953 483.14999389648 122879.20431519 56798809.527217
31355	948416 7803 5714 12610 90.75 155.5 260 0.973 11.36141391502 619.16155663603 2868.5843637804
31354	956219 7323 5714 12610 90.75 155.5 260 -6.8753995895386 4 37.32285118103 465.64834690271
31353	963542 7353 5685 12610 90.5 155.5 261 0 15.25 2179.8096115589 30258.767299561
31352	970895 8963 5656 12610 90.25 155.5 262 184.17810058594 483.36395263672 111452.93444824 49503666.179903
31351	979858 8920 5656 12610 90.25 155.5 262 486.85000610352 733.68673706055 135905.52589417 71601932.910211
vector 31491  IntersectionExampleScenario.node[46].veinsmobility  posx  ETV
vector 31492  IntersectionExampleScenario.node[46].veinsmobility  posy  ETV
vector 31493  IntersectionExampleScenario.node[46].veinsmobility  speed  ETV
vector 31494  IntersectionExampleScenario.node[46].veinsmobility  acceleration  ETV
vector 31495  IntersectionExampleScenario.node[46].veinsmobility  co2emission  ETV
vector 31498  IntersectionExampleScenario.node[47].veinsmobility  posx  ETV
vector 31499  IntersectionExampleScenario.node[47].veinsmobility  posy  ETV
vector 31500  IntersectionExampleScenario.node[47].veinsmobility  speed  ETV
vector 31501  IntersectionExampleScenario.node[47].veinsmobility  acceleration  ETV
vector 31502  IntersectionExampleScenario.node[47].veinsmobility  co2emission  ETV
31348	989580 8853 5548 12815 89.25 158.5 278 0.973 10.96810638619 626.32358176716 2552.3694204326
31347	998433 8829 5548 12815 89.25 158.5 278 -4.5 2.5 34.097539901733 397.5461720729
31346	1007262 9066 5521 12815 89 158.5 279 0 14.698289871216 2285.9226692012 29719.966774901
31345	1016328 9585 5494 12815 88.75 158.5 280 483.14804077148 807.09531402588 154540.68860626 87872424.853263
31344	1025913 9579 5494 12815 88.75 158.5 280 483.14999389648 733.04205322266 144299.92518616 75576044.95202
31362	1035492 8375 6095 12900 94 159.75 264 0.973 11.7573492282 682.17159583967 3359.7032573975
31361	1043867 8544 6095 12900 94 159.75 264 -21.012691497803 4 40.607145309448 973.07977351599
31360	1052411 8427 6064 12900 93.75 159.75 265 0 15.801786422729 2225.3621781059 31142.041918801
31359	1060838 9110 6033 12900 93.5 159.75 266 172.9296875 483.23425292969 112038.97518921 49412427.365612
31358	1069948 9141 6033 12900 93.5 159.75 266 486.85000610352 732.46130371094 137635.50511169 72301690.078911
31404	1079089 6388 8083 12985 111.25 161 200 0.973 11.450879080643 560.32968128046 2815.4199225978
31403	1085477 6405 8083 12985 111.25 161 200 -4.5 2.5 37.15309715271 398.41443123414
31402	1091882 6737 8052 12985 111 161 201 2.1132230758667 15.375 2201.4480142593 28525.569338388
31401	1098619 6977 8022 12985 110.75 161 202 184.17810058594 486.86755371094 82309.535369873 35416658.042896
31400	1105596 6997 8022 12985 110.75 161 202 238.29248046875 486.85000610352 89880.486236572 41040674.594978
31397	1112593 7129 7384 13019 105.25 161.5 226 0.973 11.648172402475 610.8699200272 2949.9840756805
31396	1119722 7824 7384 13019 105.25 161.5 226 -4.5 2.5 39.702791213989 396.21079229
31395	1127546 7804 7355 13019 105 161.5 227 0 15.64999961853 2211.5048817024 29048.524813953
31394	1135350 7882 7326 13019 104.75 161.5 228 483.11331176758 785.82187652588 126601.29953766 72225234.00378
31393	1143232 7881 7326 13019 104.75 161.5 228 483.14999389648 734.65211486816 118587.52268982 62772023.490321
31418	1151113 6547 8149 13036 111.75 161.75 201 0.973 11.990504229548 597.99775585465 3102.1230122331
31417	1157660 6496 8149 13036 111.75 161.75 201 -4.5 2.5000009536743 40.038900375366 438.67071466002
31416	1164156 6810 8116 13036 111.5 161.75 202 2.747412443161 16.125 2306.8441596031 31088.090338295
31415	1170966 6999 8083 13036 111.25 161.75 203 160.43438720703 732.08500671387 88262.436355591 42993705.927275
31414	1177965 7043 8083 13036 111.25 161.75 203 486.85000610352 486.85000610352 98830.551239014 48115654.473927
31411	1185008 6672 8116 13155 111.5 163.5 209 0.973 11.648172402475 606.10604469149 3144.0195646744
31410	1191680 6659 8116 13155 111.5 163.5 209 -29.893201828003 4 39.359884262085 1356.4850863075
31409	1198339 7052 8083 13155 111.25 163.5 210 0 15.64999961853 2172.0754311085 27922.656640968
31408	1205391 7298 8052 13155 111 163.5 211 486.55297851562 785.82187652588 118866.67520905 68786195.771683
31407	1212689 7309 8052 13155 111 163.5 211 237.01141357422 483.14999389648 93891.004699707 42788547.230533
vector 31505  IntersectionExampleScenario.node[48].veinsmobility  posx  ETV
vector 31506  IntersectionExampleScenario.node[48].veinsmobility  posy  ETV
31425	1220152 6316 8645 13223 115.75 164.5 196 0.973 11.648172402475 560.35586025325 2928.1579848548
31424	1226468 6172 8645 13223 115.75 164.5 196 -4.5 2.5000019073486 38.511121749878 423.21289557575
31423	1232640 6576 8614 13223 115.5 164.5 197 1.7203125953674 15.64999961853 2223.4895423651 29226.802807767
31422	1239216 6862 8583 13223 115.25 164.5 198 483.14999389648 790.18281555176 112076.01783752 65341814.965003
31421	1246078 6866 8583 13223 115.25 164.5 198 483.14999389648 732.69497680664 104021.20588684 55684832.023632
vector 31507  IntersectionExampleScenario.node[48].veinsmobility  speed  ETV
vector 31508  IntersectionExampleScenario.node[48].veinsmobility  acceleration  ETV
vector 31509  IntersectionExampleScenario.node[48].veinsmobility  co2emission  ETV
31432	1253191 5665 9500 13375 123 166.5 175 0.97223939240464 11.648172402475 510.0752263166 2766.2158387918
31431	1258856 5892 9500 13375 123 166.5 175 -2.9278697967529 2.5 38.681154251099 231.43728728699
31430	1264748 5865 9469 13375 122.75 166.5 176 5.6500000953674 15.64999961853 2209.2967815399 29468.189516531
31429	1270613 6156 9438 13375 122.5 166.5 177 483.12817382812 785.82187652588 100795.3877182 59200388.481312
31428	1276769 6161 9438 13375 122.5 166.5 177 483.14999389648 733.38917541504 93885.141677856 50798439.224243
vector 31512  IntersectionExampleScenario.node[49].veinsmobility  posx  ETV
vector 31513  IntersectionExampleScenario.node[49].veinsmobility  posy  ETV
vector 31514  IntersectionExampleScenario.node[49].veinsmobility  speed  ETV
31439	1283162 5502 9813 13415 125.5 167 167 0.973 11.990504229548 519.22647681825 2910.5797828934
31438	1288664 5474 9813 13415 125.5 167 167 -4.3309211730957 2.5 40.208654403687 260.42795197438
31437	1294138 5630 9781 13415 125.25 167 168 5.6500000953674 16.125 2275.1446652412 32252.144135965
31436	1299768 5881 9748 13415 125 167 169 238.34130859375 801.41563415527 89750.878974915 52034522.768687
31435	1305649 5904 9748 13415 125 167 169 483.14999389648 483.14999389648 81652.348968506 39450331.905767
vector 31515  IntersectionExampleScenario.node[49].veinsmobility  acceleration  ETV
vector 31516  IntersectionExampleScenario.node[49].veinsmobility  co2emission  ETV
vector 31519  IntersectionExampleScenario.node[50].veinsmobility  posx  ETV
vector 31520  IntersectionExampleScenario.node[50].veinsmobility  posy  ETV
vector 31521  IntersectionExampleScenario.node[50].veinsmobility  speed  ETV
vector 31522  IntersectionExampleScenario.node[50].veinsmobility  acceleration  ETV
vector 31523  IntersectionExampleScenario.node[50].veinsmobility  co2emission  ETV
vector 31526  IntersectionExampleScenario.node[51].veinsmobility  posx  ETV
vector 31527  IntersectionExampleScenario.node[51].veinsmobility  posy  ETV
vector 31528  IntersectionExampleScenario.node[51].veinsmobility  speed  ETV
vector 31529  IntersectionExampleScenario.node[51].veinsmobility  acceleration  ETV
vector 31530  IntersectionExampleScenario.node[51].veinsmobility  co2emission  ETV
vector 31533  IntersectionExampleScenario.node[52].veinsmobility  posx  ETV
vector 31534  IntersectionExampleScenario.node[52].veinsmobility  posy  ETV
vector 31540  IntersectionExampleScenario.node[53].veinsmobility  posx  ETV
vector 31541  IntersectionExampleScenario.node[53].veinsmobility  posy  ETV
vector 31535  IntersectionExampleScenario.node[52].veinsmobility  speed  ETV
vector 31542  IntersectionExampleScenario.node[53].veinsmobility  speed  ETV
vector 31536  IntersectionExampleScenario.node[52].veinsmobility  acceleration  ETV
vector 31537  IntersectionExampleScenario.node[52].veinsmobility  co2emission  ETV
vector 31543  IntersectionExampleScenario.node[53].veinsmobility  acceleration  ETV
vector 31544  IntersectionExampleScenario.node[53].veinsmobility  co2emission  ETV
31460	1313326 5405 10790 13996 134.25 173.5 158 0.973 11.200708441096 458.16489228883 2243.0242131301
31459	1318731 5254 10790 13996 134.25 173.5 158 -3.3225517272949 2.5 36.134572982788 177.98991781663
31458	1323985 5342 10761 13996 134 173.5 159 5.6500000953674 15.02499961853 2211.6951656342 31285.059369704
31457	1329327 5600 10732 13996 133.75 173.5 160 483.14999389648 483.14999389648 77303.999023438 37349426.656348
31456	1334927 5563 10732 13996 133.75 173.5 160 184.17810058594 732.09237670898 71803.374633789 36449285.035405
vector 31547  IntersectionExampleScenario.node[54].veinsmobility  posx  ETV
vector 31548  IntersectionExampleScenario.node[54].veinsmobility  posy  ETV
vector 31549  IntersectionExampleScenario.node[54].veinsmobility  speed  ETV
vector 31554  IntersectionExampleScenario.node[55].veinsmobility  posx  ETV
vector 31555  IntersectionExampleScenario.node[55].veinsmobility  posy  ETV
vector 31550  IntersectionExampleScenario.node[54].veinsmobility  acceleration  ETV
vector 31551  IntersectionExampleScenario.node[54].veinsmobility  co2emission  ETV
vector 31561  IntersectionExampleScenario.node[56].veinsmobility  posx  ETV
vector 31562  IntersectionExampleScenario.node[56].veinsmobility  posy  ETV
vector 31556  IntersectionExampleScenario.node[55].veinsmobility  speed  ETV
vector 31557  IntersectionExampleScenario.node[55].veinsmobility  acceleration  ETV
vector 31558  IntersectionExampleScenario.node[55].veinsmobility  co2emission  ETV
vector 31563  IntersectionExampleScenario.node[56].veinsmobility  speed  ETV
vector 31564  IntersectionExampleScenario.node[56].veinsmobility  acceleration  ETV
vector 31565  IntersectionExampleScenario.node[56].veinsmobility  co2emission  ETV
vector 31568  IntersectionExampleScenario.node[57].veinsmobility  posx  ETV
vector 31569  IntersectionExampleScenario.node[57].veinsmobility  posy  ETV
vector 31575  IntersectionExampleScenario.node[58].veinsmobility  posx  ETV
vector 31576  IntersectionExampleScenario.node[58].veinsmobility  posy  ETV
vector 31570  IntersectionExampleScenario.node[57].veinsmobility  speed  ETV
vector 31582  IntersectionExampleScenario.node[59].veinsmobility  posx  ETV
vector 31583  IntersectionExampleScenario.node[59].veinsmobility  posy  ETV
vector 31571  IntersectionExampleScenario.node[57].veinsmobility  acceleration  ETV
vector 31572  IntersectionExampleScenario.node[57].veinsmobility  co2emission  ETV
vector 31577  IntersectionExampleScenario.node[58].veinsmobility  speed  ETV
vector 31578  IntersectionExampleScenario.node[58].veinsmobility  acceleration  ETV
vector 31579  IntersectionExampleScenario.node[58].veinsmobility  co2emission  ETV
vector 31584  IntersectionExampleScenario.node[59].veinsmobility  speed  ETV
vector 31585  IntersectionExampleScenario.node[59].veinsmobility  acceleration  ETV
vector 31586  IntersectionExampleScenario.node[59].veinsmobility  co2emission  ETV
31474	1342896 5129 12018 15348 146.25 183.5 150 0.973 12.099024792222 488.44102676454 2754.3233874776
31473	1348025 4837 12018 15348 146.25 183.5 150 -3.4592323303223 2.5 40.887662887573 214.75836162569
31472	1352862 5043 11997 15348 146 183.5 151 5.6500000953674 16.27499961853 2225.5168018341 33588.470762743
31471	1357905 5320 11976 15348 145.75 183.5 152 483.14999389648 483.14999389648 73438.799072266 35481955.32353
31470	1363225 5296 11976 15348 145.75 183.5 152 184.17810058594 735.25187683105 68203.338623047 34666343.767762
vector 31589  IntersectionExampleScenario.node[60].veinsmobility  posx  ETV
vector 31590  IntersectionExampleScenario.node[60].veinsmobility  posy  ETV
vector 31591  IntersectionExampleScenario.node[60].veinsmobility  speed  ETV
vector 31592  IntersectionExampleScenario.node[60].veinsmobility  acceleration  ETV
vector 31593  IntersectionExampleScenario.node[60].veinsmobility  co2emission  ETV
vector 31596  IntersectionExampleScenario.node[61].veinsmobility  posx  ETV
vector 31597  IntersectionExampleScenario.node[61].veinsmobility  posy  ETV
vector 31598  IntersectionExampleScenario.node[61].veinsmobility  speed  ETV
vector 31599  IntersectionExampleScenario.node[61].veinsmobility  acceleration  ETV
vector 31600  IntersectionExampleScenario.node[61].veinsmobility  co2emission  ETV
vector 31603  IntersectionExampleScenario.node[62].veinsmobility  posx  ETV
vector 31604  IntersectionExampleScenario.node[62].veinsmobility  posy  ETV
vector 31605  IntersectionExampleScenario.node[62].veinsmobility  speed  ETV
vector 31606  IntersectionExampleScenario.node[62].veinsmobility  acceleration  ETV
vector 31607  IntersectionExampleScenario.node[62].veinsmobility  co2emission  ETV
vector 31610  IntersectionExampleScenario.node[63].veinsmobility  posx  ETV
vector 31611  IntersectionExampleScenario.node[63].veinsmobility  posy  ETV
vector 31612  IntersectionExampleScenario.node[63].veinsmobility  speed  ETV
31502	1369956 5605 12730 17100 157.25 198.25 165 0.973 11.200708441096 489.24583359627 2471.5767355219
31501	1375561 5099 12730 17100 157.25 198.25 165 -3.2952842712402 2.5 35.625318527222 252.82269031127
31500	1380660 5503 12712 17100 157 198.25 166 5.6500000953674 15.02499961853 2181.7937364578 29821.532476815
31499	1386163 5832 12693 17100 156.75 198.25 167 486.85000610352 732.61534118652 89822.191696167 49268884.975311
31498	1391995 5839 12693 17100 156.75 198.25 167 486.71420288086 785.82187652588 95522.59311676 56422413.073475
vector 31613  IntersectionExampleScenario.node[63].veinsmobility  acceleration  ETV
vector 31614  IntersectionExampleScenario.node[63].veinsmobility  co2emission  ETV
vector 31617  IntersectionExampleScenario.node[64].veinsmobility  posx  ETV
vector 31618  IntersectionExampleScenario.node[64].veinsmobility  posy  ETV
31446	1398157 8049 10569 17208 132.25 199.25 269 0.92964992182337 12.353032912318 694.90014284852 3887.7115688776
31445	1406206 7404 10569 17208 132.25 199.25 269 -34.852733612061 4 42.754949569702 1631.0464062955
31444	1413610 7585 10542 17208 132 199.25 270 0 16.625 2198.713971138 32331.484967694
31443	1421195 9475 10515 17208 131.75 199.25 271 483.14999389648 785.82187652588 146715.30745697 81523600.287029
31442	1430670 9480 10515 17208 131.75 199.25 271 483.14999389648 731.28695678711 138685.27032471 72030243.604391
vector 31619  IntersectionExampleScenario.node[64].veinsmobility  speed  ETV
vector 31620  IntersectionExampleScenario.node[64].veinsmobility  acceleration  ETV
vector 31621  IntersectionExampleScenario.node[64].veinsmobility  co2emission  ETV
vector 31624  IntersectionExampleScenario.node[65].veinsmobility  posx  ETV
vector 31625  IntersectionExampleScenario.node[65].veinsmobility  posy  ETV
vector 31631  IntersectionExampleScenario.node[66].veinsmobility  posx  ETV
vector 31632  IntersectionExampleScenario.node[66].veinsmobility  posy  ETV
vector 31626  IntersectionExampleScenario.node[65].veinsmobility  speed  ETV
vector 31627  IntersectionExampleScenario.node[65].veinsmobility  acceleration  ETV
vector 31628  IntersectionExampleScenario.node[65].veinsmobility  co2emission  ETV
vector 31633  IntersectionExampleScenario.node[66].veinsmobility  speed  ETV
vector 31634  IntersectionExampleScenario.node[66].veinsmobility  acceleration  ETV
vector 31635  IntersectionExampleScenario.node[66].veinsmobility  co2emission  ETV
31453	1441199 8456 10624 17482 132.75 201.5 276 0.973 11.887127872358 674.76767136611 3327.3700909227
31452	1449655 7886 10624 17482 132.75 201.5 276 -4.5 2.5 38.850629806519 517.79544381514
31451	1457541 8046 10597 17482 132.5 201.5 277 0 15.981851577759 2271.8692696569 32048.081128501
31450	1465587 9723 10569 17482 132.25 201.5 278 486.85000610352 809.56562805176 153358.67743683 87124009.115045
31449	1475310 9728 10569 17482 132.25 201.5 278 238.59655761719 483.14999389648 126314.05801392 58463545.824642
31467	1485038 7564 11609 17634 141.75 202.75 245 0.973 11.810082123732 625.97295554505 3108.9612964147
31466	1492602 6837 11609 17634 141.75 202.75 245 -6.9388580322266 4 39.869146347046 500.33920264231
31465	1499439 7185 11584 17634 141.5 202.75 246 0 15.875 2180.9024100304 31290.616523596
31464	1506624 8621 11559 17634 141.25 202.75 247 184.17810058594 483.24322509766 104650.96298218 46373716.189991
31463	1515245 8640 11559 17634 141.25 202.75 247 486.85000610352 733.10589599609 128242.73156738 67632466.97223
31481	1523885 7121 12212 17808 149 204.25 222 0.973 11.200708441096 568.28102926532 2685.1279166667
31480	1531006 7245 12212 17808 149 204.25 222 -3.7590894699097 2.5000002384186 37.15309715271 322.46651184857
31479	1538251 7669 12195 17808 148.75 204.25 223 0 15.02499961853 2209.0506186746 29104.017993653
31478	1545920 7810 12178 17808 148.5 204.25 224 184.17810058594 731.82366943359 100901.25886536 49639102.191123
31477	1553730 7840 12178 17808 148.5 204.25 224 486.85000610352 486.85000610352 109054.40136719 53093135.97123
31488	1561570 6644 12430 17808 152.5 204.25 208 0.973 12.099024792222 599.02894540544 3175.5688597594
31487	1568214 6914 12430 17808 152.5 204.25 208 -4.3785343170166 2.5 41.227170944214 381.92897215205
31486	1575128 7287 12415 17808 152.25 204.25 209 0 16.27499961853 2214.938668821 29965.178036668
31485	1582415 7339 12400 17808 152 204.25 210 483.12643432617 785.82187652588 117394.0022049 67485299.353812
31484	1589754 7343 12400 17808 152 204.25 210 483.14999389648 735.1315612793 109663.41967773 58317897.587766
vector 31638  IntersectionExampleScenario.node[67].veinsmobility  posx  ETV
vector 31639  IntersectionExampleScenario.node[67].veinsmobility  posy  ETV
vector 31640  IntersectionExampleScenario.node[67].veinsmobility  speed  ETV
vector 31641  IntersectionExampleScenario.node[67].veinsmobility  acceleration  ETV
vector 31642  IntersectionExampleScenario.node[67].veinsmobility  co2emission  ETV
31495	1597498 6703 12659 18178 156.25 207.5 206 0.973 11.200708441096 544.23851538732 2558.8978910907
31494	1604201 6897 12659 18178 156.25 207.5 206 -3.7913703918457 2.5 35.964826583862 287.01330237735
31493	1611098 7076 12642 18178 156 207.5 207 2.7236371040344 15.02499961853 2242.7671790123 28322.164699026
31492	1618174 7258 12625 18178 155.75 207.5 208 482.87292480469 793.78281402588 117843.87198639 68773471.926922
31491	1625432 7273 12625 18178 155.75 207.5 208 483.14999389648 734.70538330078 109335.70657349 58579463.309285
vector 31645  IntersectionExampleScenario.node[68].veinsmobility  posx  ETV
vector 31646  IntersectionExampleScenario.node[68].veinsmobility  posy  ETV
vector 31647  IntersectionExampleScenario.node[68].veinsmobility  speed  ETV
vector 31652  IntersectionExampleScenario.node[69].veinsmobility  posx  ETV
vector 31653  IntersectionExampleScenario.node[69].veinsmobility  posy  ETV
vector 31648  IntersectionExampleScenario.node[68].veinsmobility  acceleration  ETV
vector 31649  IntersectionExampleScenario.node[68].veinsmobility  co2emission  ETV
vector 31654  IntersectionExampleScenario.node[69].veinsmobility  speed  ETV
vector 31655  IntersectionExampleScenario.node[69].veinsmobility  acceleration  ETV
vector 31656  IntersectionExampleScenario.node[69].veinsmobility  co2emission  ETV
vector 31659  IntersectionExampleScenario.node[70].veinsmobility  posx  ETV
vector 31660  IntersectionExampleScenario.node[70].veinsmobility  posy  ETV
vector 31661  IntersectionExampleScenario.node[70].veinsmobility  speed  ETV
vector 31662  IntersectionExampleScenario.node[70].veinsmobility  acceleration  ETV
vector 31663  IntersectionExampleScenario.node[70].veinsmobility  co2emission  ETV
31530	1633908 5369 13784 18570 171.5 210.5 157 0.973 11.54047740176 464.515727801 2331.5343583805
31529	1639277 4858 13784 18570 171.5 210.5 157 -3.6199226379395 2.5 36.98334312439 185.99752778846
31528	1644135 5278 13761 18570 171.25 210.5 158 5.6500000953674 15.5 2220.1633729935 31769.099536895
31527	1649413 5526 13738 18570 171 210.5 159 184.17810058594 734.11010742188 71456.594970703 36341496.143377
31526	1654939 5564 13738 18570 171 210.5 159 486.85000610352 486.85000610352 77409.150970459 37686645.622436
vector 31666  IntersectionExampleScenario.node[71].veinsmobility  posx  ETV
vector 31667  IntersectionExampleScenario.node[71].veinsmobility  posy  ETV
vector 31668  IntersectionExampleScenario.node[71].veinsmobility  speed  ETV
vector 31669  IntersectionExampleScenario.node[71].veinsmobility  acceleration  ETV
vector 31670  IntersectionExampleScenario.node[71].veinsmobility  co2emission  ETV
31551	1660904 5226 14081 18926 174.25 213 156 0.973 12.099024792222 524.49335437509 3155.2931418014
31550	1666130 5109 14081 18926 174.25 213 156 -3.4056129455566 2.5 40.378400802612 306.02934761334
31549	1671239 5165 14052 18926 174 213 157 5.6500000953674 16.27499961853 2182.6784267426 31883.913100023
31548	1676404 5515 14023 18926 173.75 213 158 486.85000610352 785.82187652588 90459.249320984 53505913.454255
31547	1681919 5519 14023 18926 173.75 213 158 237.1298828125 483.14999389648 68410.661651611 30516427.80668
31558	1687438 5269 14145 19037 174.75 213.75 157 0.93536830229701 11.810082123732 555.27299215798 3108.5285807236
31557	1692707 5026 14145 19037 174.75 213.75 157 -3.6238708496094 2.5 42.415441513062 314.93913213376
31556	1697733 5204 14112 19037 174.5 213.75 158 5.6500000953674 16.509056091309 2236.1891613007 33328.261997289
31555	1702937 5540 14081 19037 174.25 213.75 159 172.9296875 483.14999389648 62398.728149414 26367328.690488
31554	1708477 5562 14081 19037 174.25 213.75 159 486.85000610352 734.80836486816 85230.704193115 46587035.057425
vector 31673  IntersectionExampleScenario.node[72].veinsmobility  posx  ETV
vector 31674  IntersectionExampleScenario.node[72].veinsmobility  posy  ETV
31516	1714193 6444 13436 19498 167.25 217 200 0.973 11.648172402475 570.44898605237 2946.4002276048
31515	1720637 6108 13436 19498 167.25 217 200 -7.2022714614868 4 38.511121749878 472.96805554695
31514	1726745 6267 13415 19498 167 217 201 0 15.64999961853 2186.9173638821 30955.16973102
31513	1733012 7063 13394 19498 166.75 217 202 483.14999389648 734.23628234863 106047.97525024 56735213.180419
31512	1740075 7048 13394 19498 166.75 217 202 184.17810058594 486.85000610352 83530.987762451 36491260.187515
vector 31675  IntersectionExampleScenario.node[72].veinsmobility  speed  ETV
vector 31676  IntersectionExampleScenario.node[72].veinsmobility  acceleration  ETV
vector 31677  IntersectionExampleScenario.node[72].veinsmobility  co2emission  ETV
vector 31680  IntersectionExampleScenario.node[73].veinsmobility  posx  ETV
vector 31681  IntersectionExampleScenario.node[73].veinsmobility  posy  ETV
vector 31682  IntersectionExampleScenario.node[73].veinsmobility  speed  ETV
31544	1747602 6089 13861 19779 172.25 219 188 0.973 11.648172402475 544.8977498336 2861.0111892932
31543	1753691 6040 13861 19779 172.25 219 188 -3.6571733951569 2.5 38.171613693237 371.49382221381
31542	1759731 6189 13834 19779 172 219 189 0 15.64999961853 2184.2346239686 29682.182079632
31541	1765920 6639 13807 19779 171.75 219 190 236.61254882812 483.14999389648 83568.447662354 37747410.67956
31540	1772559 6616 13807 19779 171.75 219 190 184.17810058594 483.14999389648 77228.033233643 33224212.475982
vector 31683  IntersectionExampleScenario.node[73].veinsmobility  acceleration  ETV
vector 31684  IntersectionExampleScenario.node[73].veinsmobility  co2emission  ETV
vector 31687  IntersectionExampleScenario.node[74].veinsmobility  posx  ETV
vector 31688  IntersectionExampleScenario.node[74].veinsmobility  posy  ETV
vector 31689  IntersectionExampleScenario.node[74].veinsmobility  speed  ETV
vector 31690  IntersectionExampleScenario.node[74].veinsmobility  acceleration  ETV
vector 31691  IntersectionExampleScenario.node[74].veinsmobility  co2emission  ETV
31579	1779745 5309 15015 20032 181.25 220.75 159 0.97223939240464 11.850502034083 541.77871844729 3381.0775892525
31578	1785054 4970 15015 20032 181.25 220.75 159 -3.1078186035156 2.5 38.680875778198 298.20528213072
31577	1790024 5372 14977 20032 181 220.75 160 5.6500000953674 15.931074142456 2220.0942249298 31604.421351169
31576	1795396 5636 14940 20032 180.75 220.75 161 483.14999389648 483.14999389648 77787.149017334 37582860.57295
31575	1801032 5596 14940 20032 180.75 220.75 161 184.17810058594 734.15007019043 72023.693878174 36374733.413384
vector 31694  IntersectionExampleScenario.node[75].veinsmobility  posx  ETV
vector 31695  IntersectionExampleScenario.node[75].veinsmobility  posy  ETV
vector 31696  IntersectionExampleScenario.node[75].veinsmobility  speed  ETV
vector 31697  IntersectionExampleScenario.node[75].veinsmobility  acceleration  ETV
vector 31698  IntersectionExampleScenario.node[75].veinsmobility  co2emission  ETV
vector 31701  IntersectionExampleScenario.node[76].veinsmobility  posx  ETV
vector 31702  IntersectionExampleScenario.node[76].veinsmobility  posy  ETV
vector 31703  IntersectionExampleScenario.node[76].veinsmobility  speed  ETV
vector 31704  IntersectionExampleScenario.node[76].veinsmobility  acceleration  ETV
vector 31705  IntersectionExampleScenario.node[76].veinsmobility  co2emission  ETV
vector 31708  IntersectionExampleScenario.node[77].veinsmobility  posx  ETV
vector 31709  IntersectionExampleScenario.node[77].veinsmobility  posy  ETV
vector 31710  IntersectionExampleScenario.node[77].veinsmobility  speed  ETV
vector 31711  IntersectionExampleScenario.node[77].veinsmobility  acceleration  ETV
vector 31712  IntersectionExampleScenario.node[77].veinsmobility  co2emission  ETV
vector 31715  IntersectionExampleScenario.node[78].veinsmobility  posx  ETV
vector 31716  IntersectionExampleScenario.node[78].veinsmobility  posy  ETV
vector 31717  IntersectionExampleScenario.node[78].veinsmobility  speed  ETV
vector 31718  IntersectionExampleScenario.node[78].veinsmobility  acceleration  ETV
vector 31719  IntersectionExampleScenario.node[78].veinsmobility  co2emission  ETV
31509	1808232 8235 13261 21719 165 232 269 0.973 11.200708441096 615.29784283077 2719.4085597923
31508	1816467 7537 13261 21719 165 232 269 -6.8690538406372 4 35.285810470581 455.469528318
31507	1824004 7823 13242 21719 164.75 232 270 0 15.02499961853 2201.1754693985 29834.37549227
31506	1831827 9469 13223 21719 164.5 232 271 236.78466796875 486.85000610352 123107.5696106 57109530.784911
31505	1841296 9475 13223 21719 164.5 232 271 483.14999389648 785.82187652588 147161.82268524 82076706.163524
31523	1850771 8156 13675 21817 170.25 232.75 251 0.973 11.810082123732 618.27947596035 2961.9296321978
31522	1858927 8322 13675 21817 170.25 232.75 251 -4.1174049377441 2.5 38.511121749878 388.19157217036
31521	1867249 8269 13654 21817 170 232.75 252 0 15.875 2188.0848988974 30015.774640638
31520	1875518 8851 13633 21817 169.75 232.75 253 486.85000610352 734.2550201416 131399.41595459 69330461.066241
31519	1884369 8827 13633 21817 169.75 232.75 253 486.85000610352 785.82187652588 138843.07245636 78192954.293259
31537	1893196 8250 13861 22171 172.25 235.75 255 0.973 11.36141391502 612.03519910427 2809.7411666739
31536	1901446 8469 13861 22171 172.25 235.75 255 -4.5 2.5 36.98334312439 363.63120354787
31535	1909915 8598 13834 22171 172 235.75 256 0 15.25 2254.3321436867 28981.669713548
31534	1918513 8955 13807 22171 171.75 235.75 257 486.85000610352 732.72190856934 133448.90629578 70386593.243311
31533	1927468 8982 13807 22171 171.75 235.75 257 486.85000610352 803.92188262939 143697.07180023 82617045.364762
31586	1936450 7280 15052 22450 181.5 238.5 229 0.973 11.36141391502 558.39024346207 2703.2638608988
31585	1943730 7698 15052 22450 181.5 238.5 229 -3.8255898952484 2.5 36.98334312439 317.20397866942
31584	1951428 7729 15015 22450 181.25 238.5 230 0 15.25 2183.2339754105 27887.230675594
31583	1959157 8076 14977 22450 181 238.5 231 486.85000610352 732.79258728027 120795.84352112 64230078.301073
31582	1967233 8072 14977 22450 181 238.5 231 486.85000610352 785.82187652588 129188.86923981 74133619.646497
31621	1975305 5561 17266 22747 199.75 241.75 169 0.973 11.200708441096 514.9661083503 2816.2977544417
31620	1980866 5312 17266 22747 199.75 241.75 169 -3.5934410095215 2.5 35.795072555542 279.78675290582
31619	1986178 5642 17237 22747 199.5 241.75 170 5.6500000953674 15.02499961853 2180.2852916718 29087.397614285
31618	1991820 5972 17208 22747 199.25 241.75 171 486.85000610352 732.30104064941 91720.179992676 50159544.328786
31617	1997792 5971 17208 22747 199.25 241.75 171 486.85000610352 785.82187652588 97804.38004303 57722360.302729
vector 31722  IntersectionExampleScenario.node[79].veinsmobility  posx  ETV
vector 31723  IntersectionExampleScenario.node[79].veinsmobility  posy  ETV
31635	2003917 5802 17420 22915 201 243.75 172 0.973 11.200708441096 511.16622634109 2543.1495913567
31634	2009719 5673 17420 22915 201 243.75 172 -4.5 2.5 37.15309715271 269.61688065347
31633	2015392 5841 17388 22915 200.75 243.75 173 5.6500000953674 15.02499961853 2272.43064785 31155.404346224
31632	2021233 6082 17355 22915 200.5 243.75 174 486.85000610352 734.04507446289 93119.908248901 50809761.065534
31631	2027315 6084 17355 22915 200.5 243.75 174 486.76934814453 807.09531402588 100850.71014404 60566024.209869
vector 31724  IntersectionExampleScenario.node[79].veinsmobility  speed  ETV
vector 31729  IntersectionExampleScenario.node[80].veinsmobility  posx  ETV
vector 31730  IntersectionExampleScenario.node[80].veinsmobility  posy  ETV
vector 31725  IntersectionExampleScenario.node[79].veinsmobility  acceleration  ETV
vector 31726  IntersectionExampleScenario.node[79].veinsmobility  co2emission  ETV
vector 31731  IntersectionExampleScenario.node[80].veinsmobility  speed  ETV
vector 31736  IntersectionExampleScenario.node[81].veinsmobility  posx  ETV
vector 31737  IntersectionExampleScenario.node[81].veinsmobility  posy  ETV
vector 31732  IntersectionExampleScenario.node[80].veinsmobility  acceleration  ETV
vector 31733  IntersectionExampleScenario.node[80].veinsmobility  co2emission  ETV
vector 31738  IntersectionExampleScenario.node[81].veinsmobility  speed  ETV
vector 31739  IntersectionExampleScenario.node[81].veinsmobility  acceleration  ETV
vector 31740  IntersectionExampleScenario.node[81].veinsmobility  co2emission  ETV
31565	2034448 8627 14178 23119 175 245.75 284 0.973 11.521929759927 670.71720563507 3191.0348336369
31564	2043075 7971 14178 23119 175 245.75 284 -36.361698150635 4 36.813589096069 1680.5949108594
31563	2051046 8114 14145 23119 174.75 245.75 285 0 15.474139213562 2302.9953660965 32235.174235307
31562	2059160 10002 14112 23119 174.5 245.75 286 483.14999389648 808.82032012939 156694.39176941 88538499.694175
31561	2069162 10003 14112 23119 174.5 245.75 286 483.14999389648 735.28971862793 146930.62823486 76688484.549767
31572	2079165 8518 14977 23220 181 246.75 264 0.973 11.810082123732 641.13140829814 3075.5924682337
31571	2087683 8671 14977 23220 181 246.75 264 -4.5 2.5 38.511121749878 436.83647661672
31570	2096354 8516 14940 23220 180.75 246.75 265 0 15.875 2206.2977573248 30541.057563807
31569	2104870 9292 14905 23220 180.5 246.75 266 486.85000610352 790.4069442749 145712.96603394 81928115.63914
31568	2114162 9253 14905 23220 180.5 246.75 266 235.74432373047 483.14999389648 120291.49078369 55497903.318312
31607	2123415 6541 16822 23269 195.75 247.25 207 0.973 12.553400930962 613.93845827292 3325.6321414826
31606	2129956 6313 16822 23269 195.75 247.25 207 -7.4028792381287 4 42.754957199097 530.44480754116
31605	2136269 6323 16793 23269 195.5 247.25 208 0 16.89999961853 2175.720538497 32300.172419777
31604	2142592 7285 16764 23269 195.25 247.25 209 184.17810058594 483.24322509766 87068.691833496 38179865.36368
31603	2149877 7310 16764 23269 195.25 247.25 209 486.85000610352 731.71034240723 109367.07624817 58186011.093367
31593	2157187 7764 16013 23430 188.5 249 243 0.97223939240464 11.810082123732 604.29020162872 3034.6368551347
31592	2164951 8140 16013 23430 188.5 249 243 -3.883044719696 2.5 38.680875778198 338.9227422055
31591	2173091 8161 15983 23430 188.25 249 244 0 15.875 2177.8998595867 28395.619648816
31590	2181252 8551 15951 23430 188 249 245 486.84527587891 785.82187652588 135898.98221588 77291430.477958
31589	2189803 8563 15951 23430 188 249 245 238.42700195312 483.14999389648 110333.21936035 50730820.033388
31628	2198366 6490 17388 23603 200.75 251 202 0.973 11.36141391502 548.58903124405 2720.9256350494
31627	2204856 6732 17388 23603 200.75 251 202 -2.5835418701172 2.5 37.32285118103 307.66380789603
31626	2211588 6840 17355 23603 200.5 251 203 0.50613880157471 15.25 2189.8288823366 28861.956674651
31625	2218428 7107 17324 23603 200.25 251 204 184.17810058594 483.14999389648 83422.122894287 35986958.167362
31624	2225535 7135 17324 23603 200.25 251 204 486.85000610352 734.68827819824 107740.5402832 57941812.889524
31614	2232670 6829 17127 23645 198.5 251.5 213 0.973 12.44402232946 606.79485572337 3299.0849426483
31613	2239499 7097 17127 23645 198.5 251.5 213 -4.5 2.5000019073486 41.90619468689 381.40349177108
31612	2246596 7253 17100 23645 198.25 251.5 214 1.1439393758774 16.75 2234.0289696455 30496.181630748
31611	2253849 7511 17073 23645 198 251.5 215 236.94311523438 790.18281555176 113762.86164093 64296138.841746
31610	2261360 7524 17073 23645 198 251.5 215 483.14999389648 483.14999389648 103877.24868774 50188292.069467
31600	2268884 7383 16655 23703 194.25 252.25 233 0.973 11.648172402475 606.7876728835 2956.7198003949
31599	2276267 8112 16655 23703 194.25 252.25 233 -3.9714775085449 2.5000019073486 39.67852973938 373.57883464548
31598	2284379 8161 16626 23703 194 252.25 234 0 15.73061466217 2209.9991231225 28097.436504227
31597	2292540 8203 16597 23703 193.75 252.25 235 483.14999389648 785.82187652588 130982.74915314 74911650.674242
31596	2300743 8203 16597 23703 193.75 252.25 235 483.14999389648 733.3948059082 122159.80714417 64610227.655695
vector 31743  IntersectionExampleScenario.node[82].veinsmobility  posx  ETV
vector 31744  IntersectionExampleScenario.node[82].veinsmobility  posy  ETV
vector 31745  IntersectionExampleScenario.node[82].veinsmobility  speed  ETV
vector 31746  IntersectionExampleScenario.node[82].veinsmobility  acceleration  ETV
vector 31747  IntersectionExampleScenario.node[82].veinsmobility  co2emission  ETV
31663	2309347 5763 18570 23860 210.5 254.25 176 0.97223939240464 11.648172402475 527.07757145633 2810.4843991059
31662	2315110 5741 18570 23860 210.5 254.25 176 -2.3518371582031 2.5 38.680875778198 250.00114875423
31661	2320851 5978 18535 23860 210.25 254.25 177 5.6500000953674 15.64999961853 2222.6646695137 29696.634124753
31660	2326829 6224 18500 23860 210 254.25 178 235.32098388672 785.82187652588 93466.594032288 53274603.416057
31659	2333053 6229 18500 23860 210 254.25 178 483.14999389648 483.14999389648 86000.698913574 41551237.155187
vector 31750  IntersectionExampleScenario.node[83].veinsmobility  posx  ETV
vector 31751  IntersectionExampleScenario.node[83].veinsmobility  posy  ETV
vector 31752  IntersectionExampleScenario.node[83].veinsmobility  speed  ETV
vector 31753  IntersectionExampleScenario.node[83].veinsmobility  acceleration  ETV
vector 31754  IntersectionExampleScenario.node[83].veinsmobility  co2emission  ETV
31677	2339683 5632 19568 24187 217.5 258.5 165 0.973 11.00486315618 468.98718853587 2255.2294311931
31676	2345315 5537 19568 24187 217.5 258.5 165 -3.1937217712402 2.5 34.606801986694 201.64310992105
31675	2350852 5532 19533 24187 217.25 258.5 166 5.6500000953674 14.75 2211.0109300613 30131.450359122
31674	2356384 5804 19498 24187 217 258.5 167 184.17810058594 486.85000610352 66576.717987061 28380376.900661
31673	2362188 5839 19498 24187 217 258.5 167 235.69842529297 486.85000610352 72298.195556641 32323342.969727
vector 31757  IntersectionExampleScenario.node[84].veinsmobility  posx  ETV
vector 31758  IntersectionExampleScenario.node[84].veinsmobility  posy  ETV
vector 31759  IntersectionExampleScenario.node[84].veinsmobility  speed  ETV
31642	2368259 6962 18033 24459 206.25 262 224 0.973 11.648172402475 597.57653631562 3126.6160162548
31641	2375221 6623 18033 24459 206.25 262 224 -7.2990398406982 4 38.341367721558 487.8744244041
31640	2381844 6770 18004 24459 206 262 225 0 15.68214225769 2184.6697032452 30870.560885018
31639	2388614 7902 17975 24459 205.75 262 226 483.14999389648 733.70735168457 117630.0559845 62319477.990827
31638	2396516 7882 17975 24459 205.75 262 226 184.17810058594 486.85000610352 94832.497192383 41816078.701192
vector 31760  IntersectionExampleScenario.node[84].veinsmobility  acceleration  ETV
vector 31761  IntersectionExampleScenario.node[84].veinsmobility  co2emission  ETV
31656	2404567 7337 18335 24591 208.75 263.75 221 0.973 11.810082123732 598.09793497826 3053.790927905
31655	2411904 7292 18335 24591 208.75 263.75 221 -4.5 2.5000002384186 38.511121749878 445.75181864582
31654	2419196 7440 18302 24591 208.5 263.75 222 0 15.875 2250.7748785447 31306.947226531
31653	2426636 7801 18269 24591 208.25 263.75 223 235.7470703125 483.14999389648 99516.230529785 45460382.927477
31652	2434437 7773 18269 24591 208.25 263.75 223 168.58435058594 483.14999389648 91436.82131958 39694445.80367
31670	2442210 6834 18889 24710 212.75 265.5 212 0.973 11.648172402475 588.33363963364 2994.5078271955
31669	2449044 6988 18889 24710 212.75 265.5 212 -3.9164099693298 2.5 39.869146347046 361.69684014316
31668	2456032 7178 18852 24710 212.5 265.5 213 0 15.662759780884 2262.2312362529 30624.064869763
31667	2463210 7486 18815 24710 212.25 265.5 214 483.14999389648 732.91345214844 111595.09075928 59242815.109379
31666	2470696 7459 18815 24710 212.25 265.5 214 170.18121337891 486.86758422852 86897.098327637 37388739.197133
vector 31764  IntersectionExampleScenario.node[85].veinsmobility  posx  ETV
vector 31765  IntersectionExampleScenario.node[85].veinsmobility  posy  ETV
vector 31766  IntersectionExampleScenario.node[85].veinsmobility  speed  ETV
31691	2478387 6133 19958 24862 220.25 268 192 0.973 11.810082123732 561.50427843626 3118.6928257173
31690	2484520 6234 19958 24862 220.25 268 192 -3.5213928222656 2.5 38.850629806519 356.47012392786
31689	2490754 6410 19921 24862 220 268 193 3.392674446106 15.875 2182.572603941 28111.049132044
31688	2497164 6778 19884 24862 219.75 268 194 237.43249511719 483.14999389648 85645.523803711 38792694.922235
31687	2503942 6767 19884 24862 219.75 268 194 184.17810058594 483.19723510742 77986.333190918 33127641.698258
vector 31767  IntersectionExampleScenario.node[85].veinsmobility  acceleration  ETV
vector 31768  IntersectionExampleScenario.node[85].veinsmobility  co2emission  ETV
31705	2510878 6221 20516 25042 224 271 189 0.973 10.756497587458 507.84549951163 2423.7738189683
31704	2517099 6118 20516 25042 224 271 189 -4.5 2.5000019073486 32.909269332886 297.97908735803
31703	2523217 6427 20477 25042 223.75 271 190 4.4293856620789 14.39999961853 2255.5749030113 28451.786382358
31702	2529644 6684 20438 25042 223.5 271 191 483.14999389648 483.14999389648 92281.648834229 44585878.071015
31701	2536328 6647 20438 25042 223.5 271 191 176.21716308594 735.0599822998 85120.181976318 42611302.203894
vector 31771  IntersectionExampleScenario.node[86].veinsmobility  posx  ETV
vector 31772  IntersectionExampleScenario.node[86].veinsmobility  posy  ETV
vector 31773  IntersectionExampleScenario.node[86].veinsmobility  speed  ETV
vector 31778  IntersectionExampleScenario.node[87].veinsmobility  posx  ETV
vector 31779  IntersectionExampleScenario.node[87].veinsmobility  posy  ETV
vector 31774  IntersectionExampleScenario.node[86].veinsmobility  acceleration  ETV
vector 31775  IntersectionExampleScenario.node[86].veinsmobility  co2emission  ETV
vector 31780  IntersectionExampleScenario.node[87].veinsmobility  speed  ETV
vector 31785  IntersectionExampleScenario.node[88].veinsmobility  posx  ETV
vector 31786  IntersectionExampleScenario.node[88].veinsmobility  posy  ETV
vector 31781  IntersectionExampleScenario.node[87].veinsmobility  acceleration  ETV
vector 31782  IntersectionExampleScenario.node[87].veinsmobility  co2emission  ETV
vector 31787  IntersectionExampleScenario.node[88].veinsmobility  speed  ETV
vector 31788  IntersectionExampleScenario.node[88].veinsmobility  acceleration  ETV
vector 31789  IntersectionExampleScenario.node[88].veinsmobility  co2emission  ETV
31649	2544178 8268 18269 25469 208.25 276.5 274 0.973 11.36141391502 625.20679231802 2861.0066470248
31648	2552446 7769 18269 25469 208.25 276.5 274 -7.1159496307373 4 37.15309715271 457.49267668108
31647	2560215 7847 18238 25469 208 276.5 275 0 15.25 2177.6615455151 29968.008026442
31646	2568062 9598 18207 25469 207.75 276.5 276 486.85000610352 733.15849304199 142707.94012451 74902129.343199
31645	2577660 9648 18207 25469 207.75 276.5 276 486.63604736328 785.82187652588 149746.46141815 83368986.037402
31684	2587308 7610 19814 25583 219.25 278 236 0.973 11.200708441096 577.55934580688 2685.3862614953
31683	2594918 7918 19814 25583 219.25 278 236 -3.8709616661072 2.5000002384186 35.795072555542 326.07632661753
31682	2602836 8155 19779 25583 219 278 237 0 15.02499961853 2220.7783497125 28747.178948617
31681	2610991 8329 19743 25583 218.75 278 238 486.85000610352 486.85000610352 115870.30145264 56411456.969432
31680	2619320 8306 19743 25583 218.75 278 238 235.15100097656 785.82187652588 123175.56653595 68070817.494882
31698	2627626 7447 20253 25735 222.25 280 232 0.973 11.450879080643 592.24257659982 2819.6273898214
31697	2635073 7572 20253 25735 222.25 280 232 -4.5 2.5000001192093 37.492597579956 398.11820270835
31696	2642645 7837 20216 25735 222 280 233 0 15.375 2260.4587021396 29044.484595733
31695	2650482 8174 20179 25735 221.75 280 234 236.46020507812 486.85000610352 105377.84371948 48569020.487383
31694	2658656 8167 20179 25735 221.75 280 234 483.14999389648 798.59687805176 131603.17540741 76143699.669884
vector 31792  IntersectionExampleScenario.node[89].veinsmobility  posx  ETV
vector 31793  IntersectionExampleScenario.node[89].veinsmobility  posy  ETV
vector 31794  IntersectionExampleScenario.node[89].veinsmobility  speed  ETV
vector 31795  IntersectionExampleScenario.node[89].veinsmobility  acceleration  ETV
vector 31796  IntersectionExampleScenario.node[89].veinsmobility  co2emission  ETV
31719	2667224 7026 20978 25878 227 281.75 220 0.973 11.200708441096 568.80187302998 2694.7718522598
31718	2674250 7161 20978 25878 227 281.75 220 -4.5 2.5000019073486 37.32285118103 382.77727214747
31717	2681411 7519 20938 25878 226.75 281.75 221 1.3594952821732 15.02499961853 2164.1611865759 27590.44362249
31716	2688930 7771 20897 25878 226.5 281.75 222 486.85000610352 486.85000610352 108080.70135498 52619090.114344
31715	2696701 7742 20897 25878 226.5 281.75 222 235.72729492188 772.10637664795 115625.82962036 64187981.739367
31712	2704443 7786 20858 26088 226.25 284.5 234 0.973 10.65035628006 597.31003658247 2599.1771604871
31711	2712229 7601 20858 26088 226.25 284.5 234 -4.5 2.5 35.625318527222 430.98579145204
31710	2719830 8030 20819 26088 226 284.5 235 0.6510978937149 14.779496192932 2268.1143542528 27846.404568986
31709	2727860 8260 20780 26088 225.75 284.5 236 486.85000610352 486.85000610352 114896.60144043 55937411.112546
31708	2736120 8242 20780 26088 225.75 284.5 236 236.29040527344 798.40938568115 126508.52716064 72724377.516272
31740	2744362 5880 23065 26487 245.25 289.75 179 0.973 12.099024792222 572.47571169512 3048.436798692
31739	2750242 5603 23065 26487 245.25 289.75 179 -6.9979004859924 4 41.227170944214 478.03543648651
31738	2755845 5791 23038 26487 245 289.75 180 0 16.27499961853 2198.7559899092 32093.12518953
31737	2761636 6311 23011 26487 244.75 289.75 181 184.17810058594 486.85000610352 73927.554046631 32050545.821471
31736	2767947 6326 23011 26487 244.75 289.75 181 237.90625 486.85000610352 80104.23550415 36420570.467173
vector 31799  IntersectionExampleScenario.node[90].veinsmobility  posx  ETV
vector 31800  IntersectionExampleScenario.node[90].veinsmobility  posy  ETV
vector 31801  IntersectionExampleScenario.node[90].veinsmobility  speed  ETV
vector 31802  IntersectionExampleScenario.node[90].veinsmobility  acceleration  ETV
vector 31803  IntersectionExampleScenario.node[90].veinsmobility  co2emission  ETV
vector 31806  IntersectionExampleScenario.node[91].veinsmobility  posx  ETV
vector 31807  IntersectionExampleScenario.node[91].veinsmobility  posy  ETV
[...]
35187	21187353 10006 173983 182215 1694.75 1762.25 271 483.13439941406 794.6388168335 148267.08028412 83336142.309172
35233	21197359 6835 176621 182436 1714.5 1764.5 201 0.973 11.54047740176 554.1189787371 2795.6633389845
35232	21204194 6993 176621 182436 1714.5 1764.5 201 -2.1230545043945 2.5 37.492597579956 306.41835179072
35231	21211187 7289 176592 182436 1714.25 1764.5 202 1.264607667923 15.5 2220.8851526976 29287.806066402
35230	21218476 7510 176561 182436 1714 1764.5 203 486.85000610352 486.85000610352 98830.551239014 48115654.473927
35229	21225986 7494 176561 182436 1714 1764.5 203 235.64526367188 785.82187652588 105886.25211334 59454293.622285
35247	21233480 6605 177031 182548 1718.5 1765.75 190 0.94399892524957 11.54047740176 584.78982857619 2994.125070711
35246	21240085 6478 177031 182548 1718.5 1765.75 190 -4.5 2.5 41.90619468689 373.57727037544
35245	21246563 6845 177004 182548 1718.25 1765.75 191 3.7352092266083 16.183776855469 2243.2619798183 30807.223643797
35244	21253408 7104 176977 182548 1718 1765.75 192 486.85000610352 486.85000610352 93475.201171875 45508402.261055
35243	21260512 7083 176977 182548 1718 1765.75 192 236.55987548828 792.02188110352 101565.56124115 57886743.44509
vector 35362  IntersectionExampleScenario.node[599].veinsmobility  posx  ETV
vector 35363  IntersectionExampleScenario.node[599].veinsmobility  posy  ETV
vector 35364  IntersectionExampleScenario.node[599].veinsmobility  speed  ETV
vector 35365  IntersectionExampleScenario.node[599].veinsmobility  acceleration  ETV
vector 35366  IntersectionExampleScenario.node[599].veinsmobility  co2emission  ETV
vector 35369  IntersectionExampleScenario.node[600].veinsmobility  posx  ETV
vector 35370  IntersectionExampleScenario.node[600].veinsmobility  posy  ETV
35282	21268157 5797 178026 182856 1726.5 1769.5 173 0.973 11.810082123732 527.00414206337 3137.7221623292
35281	21273954 6023 178026 182856 1726.5 1769.5 173 -3.005256652832 2.5 38.511121749878 293.27294544084
35280	21279977 6110 177991 182856 1726.25 1769.5 174 5.6500000953674 15.875 2188.8644781113 29080.257064881
35279	21286087 6468 177956 182856 1726 1769.5 175 486.85000610352 734.17744445801 93419.674911499 50836100.557436
35278	21292555 6470 177956 182856 1726 1769.5 175 486.85000610352 785.82187652588 100080.67212677 58993952.86823
vector 35371  IntersectionExampleScenario.node[600].veinsmobility  speed  ETV
vector 35372  IntersectionExampleScenario.node[600].veinsmobility  acceleration  ETV
vector 35373  IntersectionExampleScenario.node[600].veinsmobility  co2emission  ETV
vector 35376  IntersectionExampleScenario.node[601].veinsmobility  posx  ETV
vector 35377  IntersectionExampleScenario.node[601].veinsmobility  posy  ETV
vector 35378  IntersectionExampleScenario.node[601].veinsmobility  speed  ETV
vector 35379  IntersectionExampleScenario.node[601].veinsmobility  acceleration  ETV
vector 35380  IntersectionExampleScenario.node[601].veinsmobility  co2emission  ETV
35240	21299681 7560 177004 183326 1718.25 1774.75 227 0.973 11.90022389248 609.93672426492 3132.3556686761
35239	21307241 6903 177004 183326 1718.25 1774.75 227 -6.9388580322266 4 39.869146347046 486.92859174969
35238	21314144 7276 176977 183326 1718 1774.75 228 0 16 2204.3578848839 31907.458465355
35237	21321420 8462 176952 183326 1717.75 1774.75 229 238.82672119141 785.82187652588 117939.44954681 64798652.137039
35236	21329882 8474 176952 183326 1717.75 1774.75 229 483.14999389648 483.14999389648 110641.34860229 53456366.901897
35254	21338356 7411 177143 183349 1719.5 1775 223 0.973 12.099024792222 607.44069094499 3204.631148067
35253	21345767 6953 177143 183349 1719.5 1775 223 -7.8777389526367 4 40.038900375366 507.63096320897
35252	21352720 7135 177114 183349 1719.25 1775 224 0 16.27499961853 2184.4825298786 31478.340064468
35251	21359855 8301 177085 183349 1719 1775 225 184.17810058594 483.36395263672 94340.833831787 41529881.788875
35250	21368156 8251 177085 183349 1719 1775 225 486.85000610352 734.86784362793 117627.91316223 62536018.027837
vector 35383  IntersectionExampleScenario.node[602].veinsmobility  posx  ETV
vector 35384  IntersectionExampleScenario.node[602].veinsmobility  posy  ETV
vector 35385  IntersectionExampleScenario.node[602].veinsmobility  speed  ETV
vector 35386  IntersectionExampleScenario.node[602].veinsmobility  acceleration  ETV
vector 35387  IntersectionExampleScenario.node[602].veinsmobility  co2emission  ETV
vector 35390  IntersectionExampleScenario.node[603].veinsmobility  posx  ETV
vector 35391  IntersectionExampleScenario.node[603].veinsmobility  posy  ETV
vector 35392  IntersectionExampleScenario.node[603].veinsmobility  speed  ETV
vector 35393  IntersectionExampleScenario.node[603].veinsmobility  acceleration  ETV
vector 35394  IntersectionExampleScenario.node[603].veinsmobility  co2emission  ETV
35268	21377219 7515 177627 183566 1723.5 1777.25 216 0.973 12.099024792222 595.05396809391 3159.0927496431
35267	21384734 7735 177627 183566 1723.5 1777.25 216 -4.332763671875 2.5 40.038900375366 396.11831344565
35266	21392469 7758 177594 183566 1723.25 1777.25 217 0 16.27499961853 2204.8160840254 30905.657747861
35265	21400227 8020 177561 183566 1723 1777.25 218 177.97814941406 483.14999389648 89993.217712402 39154181.021944
35264	21408247 8062 177561 183566 1723 1777.25 218 486.85000610352 732.00028991699 114044.59164429 60661079.753967
35296	21416309 5575 179634 183727 1739.5 1779 159 0.973 12.099024792222 573.32835166102 3736.4788444609
35295	21421884 5494 179634 183727 1739.5 1779 159 -3.4471969604492 2.5 40.717908859253 361.16615910932
35294	21427378 5869 179607 183727 1739.25 1779 160 5.6500000953674 16.27499961853 2200.7346639633 31615.39097476
35293	21433247 5949 179579 183727 1739 1779 161 483.14999389648 785.82187652588 91884.480522156 54200432.439016
35292	21439196 5949 179579 183727 1739 1779 161 483.14999389648 731.58226013184 85866.183822632 46716007.962782
vector 35397  IntersectionExampleScenario.node[604].veinsmobility  posx  ETV
vector 35398  IntersectionExampleScenario.node[604].veinsmobility  posy  ETV
vector 35399  IntersectionExampleScenario.node[604].veinsmobility  speed  ETV
vector 35400  IntersectionExampleScenario.node[604].veinsmobility  acceleration  ETV
vector 35401  IntersectionExampleScenario.node[604].veinsmobility  co2emission  ETV
vector 35404  IntersectionExampleScenario.node[605].veinsmobility  posx  ETV
vector 35405  IntersectionExampleScenario.node[605].veinsmobility  posy  ETV
vector 35406  IntersectionExampleScenario.node[605].veinsmobility  speed  ETV
vector 35407  IntersectionExampleScenario.node[605].veinsmobility  acceleration  ETV
vector 35408  IntersectionExampleScenario.node[605].veinsmobility  co2emission  ETV
35289	21445957 6701 178856 183895 1732.75 1780.75 193 0.973 10.756497587458 519.42764296943 2423.7836287491
35288	21452658 6604 178856 183895 1732.75 1780.75 193 -4.5 2.5 32.739515304565 315.16537635588
35287	21459262 7009 178825 183895 1732.5 1780.75 194 3.5027213096619 14.39999961853 2217.9539158344 27696.639175673
35286	21466271 7183 178793 183895 1732.25 1780.75 195 184.17810058594 734.07107543945 87662.815170288 43879361.881721
35285	21473454 7217 178793 183895 1732.25 1780.75 195 486.85000610352 486.85000610352 94935.751190186 46219471.046384
35303	21480671 5705 179881 183920 1741.75 1781 158 0.97223939240464 11.770969961923 506.47466544595 2842.8880910901
35302	21486376 5462 179881 183920 1741.75 1781 158 -4.0019416809082 2.5 38.680875778198 236.831225412
35301	21491838 5646 179853 183920 1741.5 1781 159 5.6500000953674 15.82070350647 2279.451084137 33335.398854675
35300	21497484 5909 179824 183920 1741.25 1781 160 238.17059326172 802.70781707764 84879.058242798 49499508.829414
35299	21503393 5920 179824 183920 1741.25 1781 160 483.14999389648 483.14999389648 77303.999023438 37349426.656348
35317	21509313 5416 180030 183995 1743 1781.75 156 0.973 12.553400930962 544.29240196774 3380.3404368207
35316	21514729 5327 180030 183995 1743 1781.75 156 -2.544548034668 2.5 43.688444137573 255.1590104411
35315	21520056 5583 179999 183995 1742.75 1781.75 157 5.6500000953674 16.89999961853 2211.6167049408 31920.259412252
35314	21525639 5821 179968 183995 1742.5 1781.75 158 184.17810058594 731.49446105957 70607.603057861 35568840.258089
35313	21531460 5847 179968 183995 1742.5 1781.75 158 486.85000610352 486.85000610352 76922.300964355 37449622.693993
vector 35411  IntersectionExampleScenario.node[606].veinsmobility  posx  ETV
vector 35412  IntersectionExampleScenario.node[606].veinsmobility  posy  ETV
vector 35413  IntersectionExampleScenario.node[606].veinsmobility  speed  ETV
vector 35414  IntersectionExampleScenario.node[606].veinsmobility  acceleration  ETV
vector 35415  IntersectionExampleScenario.node[606].veinsmobility  co2emission  ETV
35324	21537713 5927 180593 184701 1747.75 1788.75 165 0.973 11.200708441096 491.47844271599 2504.2912145379
35323	21543640 5639 180593 184701 1747.75 1788.75 165 -3.4688949584961 2.5 35.795072555542 258.45354128877
35322	21549279 5844 180564 184701 1747.5 1788.75 166 5.6500000953674 15.02499961853 2192.8728952408 30089.625372628
35321	21555123 6159 180535 184701 1747.25 1788.75 167 184.17810058594 483.14999389648 66482.335754395 28250453.441065
35320	21561282 6174 180535 184701 1747.25 1788.75 167 486.85000610352 735.5106048584 89987.220657349 49474646.130974
35261	21567456 9076 177437 185089 1722 1792.5 283 0.973 11.648172402475 666.60950771457 3199.9207724526
35260	21576532 8333 177437 185089 1722 1792.5 283 -40.810028076172 4 37.662351608276 2020.7669275336
35259	21584865 8559 177406 185089 1721.75 1792.5 284 0 15.64999961853 2213.8620834351 31610.052446516
35258	21593424 10545 177375 185089 1721.5 1792.5 285 483.14999389648 483.14999389648 137697.7482605 66528666.231619
35257	21603969 10516 177375 185089 1721.5 1792.5 285 184.17810058594 734.56689453125 130941.43461609 64394798.107145
35275	21614485 9322 177791 185163 1724.75 1793.25 275 0.973 11.810082123732 673.25192878903 3242.4026584435
35274	21623807 9250 177791 185163 1724.75 1793.25 275 -4.5 2.5 40.378400802612 467.72405841893
35273	21633057 9205 177758 185163 1724.5 1793.25 276 0 15.875 2236.9236335382 31735.185751017
35272	21642262 10234 177725 185163 1724.25 1793.25 277 238.07397460938 483.14999389648 125972.96401978 58345350.739498
35271	21652496 10209 177725 185163 1724.25 1793.25 277 169.95465087891 483.14999389648 116826.89813232 51558611.164988
vector 35418  IntersectionExampleScenario.node[607].veinsmobility  posx  ETV
vector 35419  IntersectionExampleScenario.node[607].veinsmobility  posy  ETV
vector 35420  IntersectionExampleScenario.node[607].veinsmobility  speed  ETV
vector 35421  IntersectionExampleScenario.node[607].veinsmobility  acceleration  ETV
vector 35422  IntersectionExampleScenario.node[607].veinsmobility  co2emission  ETV
35310	21663111 7343 179939 185447 1742.25 1796.25 217 0.973 11.810082123732 576.31710655847 2991.4613306573
35309	21670454 7671 179939 185447 1742.25 1796.25 217 -3.8722741603851 2.5 38.511121749878 340.9115783681
35308	21678125 7723 179910 185447 1742 1796.25 218 0 15.875 2189.7407246158 28753.160332657
35307	21685848 8098 179881 185447 1741.75 1796.25 219 235.80645751953 483.14999389648 97587.789733887 44529690.395349
35306	21693946 8070 179881 185447 1741.75 1796.25 219 184.17810058594 483.14999389648 89935.242919922 38794967.576045
vector 35425  IntersectionExampleScenario.node[608].veinsmobility  posx  ETV
vector 35426  IntersectionExampleScenario.node[608].veinsmobility  posy  ETV
vector 35427  IntersectionExampleScenario.node[608].veinsmobility  speed  ETV
vector 35428  IntersectionExampleScenario.node[608].veinsmobility  acceleration  ETV
vector 35429  IntersectionExampleScenario.node[608].veinsmobility  co2emission  ETV
35331	21702422 6744 180737 185833 1749 1800 205 0.973 11.90022389248 563.11814726728 3034.3176236067
35330	21709166 6215 180737 185833 1749 1800 205 -7.9206209182739 4 40.208806991577 507.50899619919
35329	21715381 6437 180708 185833 1748.75 1800 206 0 16 1846.746150732 26467.570667332
35328	21721818 7658 180679 185833 1748.5 1800 207 486.85000610352 486.85000610352 100777.95126343 49063746.187699
35327	21729476 7646 180679 185833 1748.5 1800 207 328.05969238281 785.82187652588 111904.79531097 63148876.597169
35338	21737122 5673 181310 185833 1754.25 1800 184 0.973 11.648172402475 359.13769362909 1538.5733799979
35337	21742795 5238 181310 185833 1754.25 1800 184 -9.4472818374634 2.5 -22.60000038147 394.28634264797
35336	21748033 5443 181283 185833 1754 1800 185 0 15.64999961853 1146.106960535 16244.98088745
35335	21753476 6878 181256 185833 1753.75 1800 186 498.39999389648 785.82187652588 105509.07527924 61586610.822047
35334	21760354 6881 181256 185833 1753.75 1800 186 483.14999389648 483.14999389648 89865.898864746 43418708.488004
35345	21767235 5876 181557 185833 1756.5 1800 175 0.973 11.200708441096 341.22741971158 1389.0426539077
35344	21773111 6240 181557 185833 1756.5 1800 175 -4.5 2.5 -22.60000038147 243.58041584497
35343	21779351 6244 181528 185833 1756.25 1800 176 0 15.02499961853 1189.8229103815 15807.086015294
35342	21785595 6533 181499 185833 1756 1800 177 504.79895019531 802.70781707764 103519.99177551 62368007.297173
35341	21792128 6547 181499 185833 1756 1800 177 483.14999389648 483.14999389648 85517.548919678 41317803.238584
35352	21798675 5137 181875 185833 1759.25 1800 164 0.973 11.200708441096 331.07302631076 1389.254326291
35351	21803812 4770 181875 185833 1759.25 1800 164 -8.2128324508667 2.5 -22.60000038147 326.23883781762
35350	21808582 5027 181846 185833 1759 1800 165 0 15.02499961853 1146.1635041237 15767.220397762
35349	21813609 6111 181817 185833 1758.75 1800 166 184.17810058594 471.60000610352 65244.649688721 27274595.847659
35348	21819720 6141 181817 185833 1758.75 1800 166 486.85000610352 486.85000610352 80817.101013184 39345806.121537
35359	21825861 5426 181934 185833 1759.75 1800 162 0.973 11.200708441096 333.42852662485 1404.3043677346
35358	21831287 5729 181934 185833 1759.75 1800 162 -4.5 2.5 -22.123737424612 237.81577197419
35357	21837016 6006 181905 185833 1759.5 1800 163 0 15.236711502075 1173.6112744696 14713.253527143
35356	21843022 6046 181875 185833 1759.25 1800 164 511.54302978516 805.51329803467 98004.8879776 60172835.635641
35355	21849068 6068 181875 185833 1759.25 1800 164 483.14999389648 483.14999389648 79236.598999023 38283162.322756
35366	21855136 4479 182688 185833 1767.5 1800 131 0.973 12.26218747632 487.75109039955 3332.7959598741
35365	21859615 4309 182688 185833 1767.5 1800 131 -2.9151573181152 2.5 41.297811508179 361.71377152391
35364	21863924 4537 182667 185833 1767.25 1800 132 5.6500000953674 16.5 1606.6383504868 21322.716087695
35363	21868461 4917 182646 185833 1767 1800 133 486.85000610352 588.41424560547 66207.678436279 33037113.245251
35362	21873378 4908 182646 185833 1767 1800 133 486.85000610352 785.82187652588 78924.777565002 48231570.747831
35373	21878286 3738 182902 185833 1770 1800 121 0.973 12.099024792222 281.52113437301 1567.5352013139
35372	21882024 4312 182902 185833 1770 1800 121 -3.9285259246826 2.5 -21.836347341537 201.03659798314
35371	21886336 4489 182879 185833 1769.75 1800 122 0 16.27499961853 1062.8994664028 12925.99800446
35370	21890825 4543 182856 185833 1769.5 1800 123 519.72296142578 785.82187652588 75707.434989929 47586895.206942
35369	21895368 4550 182856 185833 1769.5 1800 123 483.14999389648 483.14999389648 59427.449249268 28712371.742067
35380	21899918 3499 183211 185833 1773.5 1800 107 0.973 12.099024792222 273.76202726625 1539.7715180552
35379	21903417 3853 183211 185833 1773.5 1800 107 -4.5 2.5 -15.816078186035 247.62367998638
35378	21907270 3976 183188 185833 1773.25 1800 108 1.6959805488586 16.27499961853 1060.3650718927 13777.332970579
35377	21911246 4021 183165 185833 1773 1800 109 530.65051269531 795.46562957764 69135.705093384 44736223.060259
35376	21915267 4031 183165 185833 1773 1800 109 483.14999389648 483.14999389648 52663.349334717 25444296.909637
35387	21919298 3162 183445 185833 1776 1800 97 0.973 11.648172402475 254.69203953612 1393.3914745346
35386	21922460 3563 183445 185833 1776 1800 97 -2.1501121520996 2.5 -11.607330322266 171.99147815417
35385	21926023 3608 183420 185833 1775.75 1800 98 2.748167514801 15.64999961853 1086.797524929 13961.716271224
35384	21929631 3633 183395 185833 1775.5 1800 99 184.17810058594 455.03350830078 33215.836120605 11960266.858068
35383	21933264 3662 183395 185833 1775.5 1800 99 486.85000610352 486.85000610352 48198.150604248 23465269.915856
35394	21936926 2898 183566 185833 1777.25 1800 92 0.973 11.200708441096 225.56258821603 1212.4684150461
35393	21939824 3388 183566 185833 1777.25 1800 92 -1.5052194595337 2.5 -7.2208623886108 138.56457873562
35392	21943212 3425 183542 185833 1777 1800 93 3.8447844982147 15.02499961853 1038.0048782825 12724.719604152
35391	21946637 3472 183517 185833 1776.75 1800 94 540.27963256836 798.60469818115 61971.984382629 41529311.471132
35390	21950109 3477 183517 185833 1776.75 1800 94 483.14999389648 483.14999389648 45416.09942627 21942788.160604
35401	21953586 2885 183799 185833 1779.75 1800 82 0.973 11.648172402475 256.26071504752 1430.0624651124
35400	21956471 2902 183799 185833 1779.75 1800 82 -3.163745880127 2.5 3.0018329620361 202.87390689388
35399	21959373 3054 183775 185833 1779.5 1800 83 5.6500000953674 15.64999961853 1126.9954409599 15934.717262327
35398	21962427 3108 183750 185833 1779.25 1800 84 483.14999389648 483.14999389648 40584.599487305 19608448.994582
35397	21965535 3087 183750 185833 1779.25 1800 84 184.17810058594 463.93463134766 26762.360748291 9184689.4581224
35408	21968622 2688 183895 185833 1780.75 1800 78 0.973 11.200708441096 237.71674894978 1288.9478228245
35407	21971310 2732 183895 185833 1780.75 1800 78 -4.5 2.5 7.0240879058838 185.32768126448
35406	21974042 2910 183870 185833 1780.5 1800 79 5.6500000953674 15.236417770386 982.65622997284 12817.656657406
35405	21976952 2954 183845 185833 1780.25 1800 80 558.47323608398 801.85704803467 54384.872489929 37456363.66938
35404	21979906 2960 183845 185833 1780.25 1800 80 483.14999389648 483.14999389648 38651.999511719 18674713.328174
35415	21982866 1705 184674 185833 1788.5 1800 47 0.973 11.648172402475 199.19259241928 1337.2634846462
35414	21984571 1634 184674 185833 1788.5 1800 47 -0.58139801025391 2.5 38.272909164429 101.41168397302
35413	21986205 1765 184647 185833 1788.25 1800 48 5.6500000953674 15.991991043091 667.8343334198 9732.8379429218
35412	21987970 1809 184620 185833 1788 1800 49 623.93087768555 785.82187652588 35016.454307556 25151588.970314
35411	21989779 1811 184620 185833 1788 1800 49 483.14999389648 483.14999389648 23674.349700928 11438261.913506
35422	21991590 661 185397 185833 1795.75 1800 18 1.986667772344 11.200708441096 128.67016961892 1065.4488062328
35421	21992251 506 185397 185833 1795.75 1800 18 -0.044288635253906 2.5 37.397581100464 93.753675914257
35420	21992757 692 185372 185833 1795.5 1800 19 5.6500000953674 15.02499961853 210.4189414978 2518.2034957145
35419	21993449 740 185347 185833 1795.25 1800 20 483.14999389648 483.14999389648 9662.9998779297 4668678.3320435
35418	21994189 723 185347 185833 1795.25 1800 20 184.17810058594 231.78436279297 4062.7484130859 829776.55651385
35429	21994912 148 185751 185833 1799.25 1800 4 5.2162187258585 6.4635356930995 23.356389703243 137.24455235531
35428	21995060 112 185751 185833 1799.25 1800 4 2.4999980926514 2.5 9.9999980926514 24.99999046326
35427	21995172 183 185724 185833 1799 1800 5 5.6500000953674 8.1499996185303 34.5 241.95624880791
35426	21995355 221 185697 185833 1798.75 1800 6 779.54688262939 785.82187652588 4700.0250244141 3681737.9733812
35425	21995576 221 185697 185833 1798.75 1800 6 483.14999389648 483.14999389648 2898.8999633789 1400603.499613
31165	21995797 638 0 185832 0 1800 31 0 27 533 10025
31166	21996435 652 0 185832 0 1800 31 0 201 3041 412517
