file 18884754 1591409022                                        
version 2
run nodebug-43-20200605-22:00:50-20324
attr configname nodebug
attr datetime 20200605-22:00:50
attr experiment nodebug
attr inifile omnetpp.ini
attr iterationvars ""
attr iterationvars2 $repetition=43
attr measurement ""
attr network "\"org.car2x.veins.modules.application.ExtTraCIScenarioManagerLaunchd.IntersectionExampleScenario\""
attr processid 20324
attr repetition 43
attr replication #43
attr resultdir results
attr runnumber 43
attr seedset 43
param **.coreDebug false
param **.debug false
param *.**.nic.mac1609_4.bitrate 18Mbps
param *.**.nic.mac1609_4.txPower 20mW
param *.**.nic.mac1609_4.useServiceChannel false
param *.**.nic.phy80211p.analogueModels "xmldoc(\"config.xml\")"
param *.**.nic.phy80211p.decider "xmldoc(\"config.xml\")"
param *.**.nic.phy80211p.sensitivity -89dBm
param *.**.nic.phy80211p.thermalNoise -110dBm
param *.**.nic.phy80211p.usePropagationDelay true
param *.**.nic.phy80211p.useThermalNoise true
param *.annotations.draw false
param *.connectionManager.alpha 2.0
param *.connectionManager.carrierFrequency "5.890e9 Hz"
param *.connectionManager.pMax 20mW
param *.connectionManager.sat -89dBm
param *.connectionManager.sendDirect true
param *.manager.autoShutdown true
param *.manager.host "\"localhost\""
param *.manager.launchConfig "xmldoc(\"paramics.launchd.xml\")"
param *.manager.margin 25
param *.manager.moduleDisplayString "\"\""
param *.manager.moduleName "\"node\""
param *.manager.moduleType "\"org.car2x.veins.nodes.Car\""
param *.manager.port 9999
param *.manager.updateInterval 250ms
param *.node[*0].veinsmobility.accidentCount 0
param *.node[*0].veinsmobility.accidentDuration 30s
param *.node[*0].veinsmobility.accidentStart 75s
param *.node[*].appl.LiderSelectZoneRadio 55.0
param *.node[*].appl.ShareDataZoneRadio 110.0
param *.node[*].appl.TiempoSemaforo 30.0
param *.node[*].appl.beaconInterval 1s
param *.node[*].appl.beaconPriority 3
param *.node[*].appl.dataOnSch false
param *.node[*].appl.dataPriority 2
param *.node[*].appl.debug false
param *.node[*].appl.headerLength "256 bit"
param *.node[*].appl.maxOffset 0.005s
param *.node[*].appl.sendBeacons false
param *.node[*].appl.sendData true
param *.node[*].applType "\"Dummy\""
param *.node[*].mobilityType "\"TraCIMobility\""
param *.node[*].mobilityType.debug true
param *.node[*].veinsmobility.x 0
param *.node[*].veinsmobility.y 0
param *.node[*].veinsmobility.z 1.895
param *.node[*].veinsmobilityType "\"org.car2x.veins.modules.mobility.traci.TraCIMobility\""
param *.node[*].veinsmobilityType.debug true
param *.playgroundSizeX 8500m
param *.playgroundSizeY 8500m
param *.playgroundSizeZ 50m
param *.world.use2D false
param *.world.useTorus false

vector 43220  IntersectionExampleScenario.manager  vehiclesinsim  ETV
attr type  int
vector 43221  IntersectionExampleScenario.manager  realtime  ETV
attr type  int
attr unit  s
vector 43224  IntersectionExampleScenario.node[0].veinsmobility  posx  ETV
vector 43225  IntersectionExampleScenario.node[0].veinsmobility  posy  ETV
vector 43226  IntersectionExampleScenario.node[0].veinsmobility  speed  ETV
vector 43227  IntersectionExampleScenario.node[0].veinsmobility  acceleration  ETV
vector 43228  IntersectionExampleScenario.node[0].veinsmobility  co2emission  ETV
vector 43231  IntersectionExampleScenario.node[1].veinsmobility  posx  ETV
vector 43232  IntersectionExampleScenario.node[1].veinsmobility  posy  ETV
vector 43238  IntersectionExampleScenario.node[2].veinsmobility  posx  ETV
vector 43239  IntersectionExampleScenario.node[2].veinsmobility  posy  ETV
vector 43233  IntersectionExampleScenario.node[1].veinsmobility  speed  ETV
vector 43234  IntersectionExampleScenario.node[1].veinsmobility  acceleration  ETV
vector 43235  IntersectionExampleScenario.node[1].veinsmobility  co2emission  ETV
vector 43240  IntersectionExampleScenario.node[2].veinsmobility  speed  ETV
vector 43241  IntersectionExampleScenario.node[2].veinsmobility  acceleration  ETV
vector 43242  IntersectionExampleScenario.node[2].veinsmobility  co2emission  ETV
vector 43245  IntersectionExampleScenario.node[3].veinsmobility  posx  ETV
vector 43246  IntersectionExampleScenario.node[3].veinsmobility  posy  ETV
vector 43247  IntersectionExampleScenario.node[3].veinsmobility  speed  ETV
vector 43248  IntersectionExampleScenario.node[3].veinsmobility  acceleration  ETV
vector 43249  IntersectionExampleScenario.node[3].veinsmobility  co2emission  ETV
vector 43252  IntersectionExampleScenario.node[4].veinsmobility  posx  ETV
vector 43253  IntersectionExampleScenario.node[4].veinsmobility  posy  ETV
vector 43254  IntersectionExampleScenario.node[4].veinsmobility  speed  ETV
vector 43255  IntersectionExampleScenario.node[4].veinsmobility  acceleration  ETV
vector 43256  IntersectionExampleScenario.node[4].veinsmobility  co2emission  ETV
vector 43259  IntersectionExampleScenario.node[5].veinsmobility  posx  ETV
vector 43260  IntersectionExampleScenario.node[5].veinsmobility  posy  ETV
vector 43261  IntersectionExampleScenario.node[5].veinsmobility  speed  ETV
vector 43262  IntersectionExampleScenario.node[5].veinsmobility  acceleration  ETV
vector 43263  IntersectionExampleScenario.node[5].veinsmobility  co2emission  ETV
vector 43266  IntersectionExampleScenario.node[6].veinsmobility  posx  ETV
vector 43267  IntersectionExampleScenario.node[6].veinsmobility  posy  ETV
vector 43268  IntersectionExampleScenario.node[6].veinsmobility  speed  ETV
vector 43269  IntersectionExampleScenario.node[6].veinsmobility  acceleration  ETV
vector 43270  IntersectionExampleScenario.node[6].veinsmobility  co2emission  ETV
vector 43273  IntersectionExampleScenario.node[7].veinsmobility  posx  ETV
vector 43274  IntersectionExampleScenario.node[7].veinsmobility  posy  ETV
vector 43280  IntersectionExampleScenario.node[8].veinsmobility  posx  ETV
vector 43281  IntersectionExampleScenario.node[8].veinsmobility  posy  ETV
vector 43275  IntersectionExampleScenario.node[7].veinsmobility  speed  ETV
vector 43276  IntersectionExampleScenario.node[7].veinsmobility  acceleration  ETV
vector 43277  IntersectionExampleScenario.node[7].veinsmobility  co2emission  ETV
vector 43282  IntersectionExampleScenario.node[8].veinsmobility  speed  ETV
vector 43283  IntersectionExampleScenario.node[8].veinsmobility  acceleration  ETV
vector 43284  IntersectionExampleScenario.node[8].veinsmobility  co2emission  ETV
vector 43287  IntersectionExampleScenario.node[9].veinsmobility  posx  ETV
vector 43288  IntersectionExampleScenario.node[9].veinsmobility  posy  ETV
vector 43289  IntersectionExampleScenario.node[9].veinsmobility  speed  ETV
vector 43290  IntersectionExampleScenario.node[9].veinsmobility  acceleration  ETV
vector 43291  IntersectionExampleScenario.node[9].veinsmobility  co2emission  ETV
vector 43294  IntersectionExampleScenario.node[10].veinsmobility  posx  ETV
vector 43295  IntersectionExampleScenario.node[10].veinsmobility  posy  ETV
vector 43296  IntersectionExampleScenario.node[10].veinsmobility  speed  ETV
vector 43297  IntersectionExampleScenario.node[10].veinsmobility  acceleration  ETV
vector 43298  IntersectionExampleScenario.node[10].veinsmobility  co2emission  ETV
43228	7297 4476 23 1589 4.5 40.25 144 0.973 12.553400930962 508.92384760422 3083.7380168724
43227	11773 4017 23 1589 4.5 40.25 144 -3.2359619140625 2.5 44.112981796265 232.71286722488
43226	15790 4374 20 1589 4.25 40.25 145 5.6500000953674 16.89999961853 2212.606221199 34748.615819052
43225	20164 4653 17 1589 4 40.25 146 483.14999389648 483.14999389648 70539.899108887 34081351.823917
43224	24817 4624 17 1589 4 40.25 146 184.17810058594 731.77624511719 65086.834701538 32875135.646105
vector 43301  IntersectionExampleScenario.node[11].veinsmobility  posx  ETV
vector 43302  IntersectionExampleScenario.node[11].veinsmobility  posy  ETV
vector 43303  IntersectionExampleScenario.node[11].veinsmobility  speed  ETV
vector 43304  IntersectionExampleScenario.node[11].veinsmobility  acceleration  ETV
vector 43305  IntersectionExampleScenario.node[11].veinsmobility  co2emission  ETV
vector 43308  IntersectionExampleScenario.node[12].veinsmobility  posx  ETV
vector 43309  IntersectionExampleScenario.node[12].veinsmobility  posy  ETV
vector 43310  IntersectionExampleScenario.node[12].veinsmobility  speed  ETV
vector 43311  IntersectionExampleScenario.node[12].veinsmobility  acceleration  ETV
vector 43312  IntersectionExampleScenario.node[12].veinsmobility  co2emission  ETV
vector 43315  IntersectionExampleScenario.node[13].veinsmobility  posx  ETV
vector 43316  IntersectionExampleScenario.node[13].veinsmobility  posy  ETV
vector 43322  IntersectionExampleScenario.node[14].veinsmobility  posx  ETV
vector 43323  IntersectionExampleScenario.node[14].veinsmobility  posy  ETV
vector 43317  IntersectionExampleScenario.node[13].veinsmobility  speed  ETV
vector 43324  IntersectionExampleScenario.node[14].veinsmobility  speed  ETV
vector 43329  IntersectionExampleScenario.node[15].veinsmobility  posx  ETV
vector 43330  IntersectionExampleScenario.node[15].veinsmobility  posy  ETV
vector 43318  IntersectionExampleScenario.node[13].veinsmobility  acceleration  ETV
vector 43319  IntersectionExampleScenario.node[13].veinsmobility  co2emission  ETV
vector 43325  IntersectionExampleScenario.node[14].veinsmobility  acceleration  ETV
vector 43326  IntersectionExampleScenario.node[14].veinsmobility  co2emission  ETV
vector 43331  IntersectionExampleScenario.node[15].veinsmobility  speed  ETV
vector 43332  IntersectionExampleScenario.node[15].veinsmobility  acceleration  ETV
vector 43333  IntersectionExampleScenario.node[15].veinsmobility  co2emission  ETV
vector 43336  IntersectionExampleScenario.node[16].veinsmobility  posx  ETV
vector 43337  IntersectionExampleScenario.node[16].veinsmobility  posy  ETV
vector 43338  IntersectionExampleScenario.node[16].veinsmobility  speed  ETV
vector 43339  IntersectionExampleScenario.node[16].veinsmobility  acceleration  ETV
vector 43340  IntersectionExampleScenario.node[16].veinsmobility  co2emission  ETV
vector 43343  IntersectionExampleScenario.node[17].veinsmobility  posx  ETV
vector 43344  IntersectionExampleScenario.node[17].veinsmobility  posy  ETV
vector 43345  IntersectionExampleScenario.node[17].veinsmobility  speed  ETV
vector 43346  IntersectionExampleScenario.node[17].veinsmobility  acceleration  ETV
vector 43347  IntersectionExampleScenario.node[17].veinsmobility  co2emission  ETV
vector 43350  IntersectionExampleScenario.node[18].veinsmobility  posx  ETV
vector 43351  IntersectionExampleScenario.node[18].veinsmobility  posy  ETV
vector 43352  IntersectionExampleScenario.node[18].veinsmobility  speed  ETV
vector 43353  IntersectionExampleScenario.node[18].veinsmobility  acceleration  ETV
vector 43354  IntersectionExampleScenario.node[18].veinsmobility  co2emission  ETV
43256	32649 4921 485 3623 21.5 60 155 0.973 11.90022389248 500.52554855579 2781.3659964429
43255	37570 4425 485 3623 21.5 60 155 -3.2846527099609 2.5 39.869146347046 241.68198894314
43254	41995 4804 474 3623 21.25 60 156 5.6500000953674 16 2213.0224189758 32437.108865515
43253	46799 5118 463 3623 21 60 157 235.76922607422 486.85000610352 68152.313781738 30531874.819582
43252	51917 5125 463 3623 21 60 157 483.14999389648 785.82187652588 89785.977348328 53106735.302482
43235	57042 6441 98 4064 10.25 65.25 221 0.973 11.648172402475 586.74355260613 2923.4475488475
43234	63483 5971 98 4064 10.25 65.25 221 -8.4909086227417 4 38.001859664917 488.16079423471
43233	69454 6155 91 4064 10 65.25 222 0 15.64999961853 2172.5754644871 30408.737049521
43232	75609 7241 86 4064 9.75 65.25 223 184.17810058594 483.36395263672 93139.288024902 40886465.570753
43231	82850 7200 86 4064 9.75 65.25 223 486.85000610352 732.01240539551 116723.38063049 62126268.895325
43242	90050 6924 105 4280 10.5 68 231 0.973 11.524187290096 605.99957122453 2896.5231279655
43241	96974 6314 105 4280 10.5 68 231 -4.5 2.5 38.341367721558 457.87542573907
43240	103288 6792 98 4280 10.25 68 232 0 15.47728729248 2284.6768280491 31571.753233623
43239	110080 7570 91 4280 10 68 233 159.76721191406 483.18640136719 94910.997070312 41136925.52142
43238	117650 7583 91 4280 10 68 233 486.85000610352 733.78022766113 121670.14385986 64594297.369271
vector 43357  IntersectionExampleScenario.node[19].veinsmobility  posx  ETV
vector 43358  IntersectionExampleScenario.node[19].veinsmobility  posy  ETV
vector 43359  IntersectionExampleScenario.node[19].veinsmobility  speed  ETV
vector 43360  IntersectionExampleScenario.node[19].veinsmobility  acceleration  ETV
vector 43361  IntersectionExampleScenario.node[19].veinsmobility  co2emission  ETV
43249	125634 6926 193 4438 13.5 70 227 0.973 11.54047740176 592.74452001667 2842.195817623
43248	132560 6900 193 4438 13.5 70 227 -3.7578971385956 2.5 37.15309715271 368.67498758638
43247	139460 7239 184 4438 13.25 70 228 0 15.5 2322.1253109071 31417.070079192
43246	146699 7438 175 4438 13 70 229 158.61120605469 734.57023620605 101206.14338684 49575862.090273
43245	154137 7477 175 4438 13 70 229 486.85000610352 486.85000610352 111488.65139771 54278250.613445
43277	161614 5021 921 4438 31.25 70 156 0.973 11.648172402475 497.83206584714 2703.3727024765
43276	166635 4842 921 4438 31.25 70 156 -3.3288497924805 2.5 39.359884262085 239.41095953563
43275	171477 5123 904 4438 31 70 157 5.6500000953674 15.708552360535 2214.8075838089 32256.768581899
43274	176600 5196 889 4438 30.75 70 158 483.14999389648 785.82187652588 90329.246940613 53408693.974496
43273	181796 5199 889 4438 30.75 70 158 483.14999389648 734.82232666016 84728.32182312 46396047.498393
43263	186995 5238 765 4522 28.25 71 172 0.94600815583079 12.353032912318 569.96021093039 3458.5303491739
43262	192233 5149 765 4522 28.25 71 172 -3.7324028015137 2.5000019073486 41.566686630249 351.9594436052
43261	197382 5365 754 4522 28 71 173 4.9377932548523 16.625 2200.2809653282 30460.993211646
43260	202747 5687 743 4522 27.75 71 174 184.17810058594 486.87512207031 69687.7081604 29660199.294505
43259	208434 5721 743 4522 27.75 71 174 239.06903076172 486.85000610352 76848.692474365 34882206.40665
43270	214155 5793 824 4836 29.5 74.75 182 0.973 11.200708441096 521.84197180991 2567.5077984768
43269	219948 5538 824 4836 29.5 74.75 182 -4.5 2.5000019073486 35.964826583862 282.6013510005
43268	225486 5753 811 4836 29.25 74.75 183 5.6500000953674 15.02499961853 2300.0457162857 30272.291130375
43267	231239 6031 798 4836 29 74.75 184 162.90466308594 486.85000610352 72210.632659912 30515032.473915
43266	237270 6047 798 4836 29 74.75 184 234.94915771484 486.85000610352 80717.631378174 36471259.007865
43291	243317 5213 1180 4855 35 75 161 0.973 11.200708441096 462.52627835782 2214.2875080148
43290	248530 4687 1180 4855 35 75 161 -3.605110168457 2.5 36.134572982788 174.36374153843
43289	253217 5115 1161 4855 34.75 75 162 5.6500000953674 15.02499961853 2251.7981452942 31829.045634253
43288	258332 5360 1142 4855 34.5 75 163 235.84368896484 793.78281402588 85418.290184021 49216674.613246
43287	263692 5378 1142 4855 34.5 75 163 483.14999389648 483.14999389648 78753.449005127 38049728.406154
vector 43364  IntersectionExampleScenario.node[20].veinsmobility  posx  ETV
vector 43365  IntersectionExampleScenario.node[20].veinsmobility  posy  ETV
vector 43366  IntersectionExampleScenario.node[20].veinsmobility  speed  ETV
vector 43371  IntersectionExampleScenario.node[21].veinsmobility  posx  ETV
vector 43372  IntersectionExampleScenario.node[21].veinsmobility  posy  ETV
vector 43367  IntersectionExampleScenario.node[20].veinsmobility  acceleration  ETV
vector 43368  IntersectionExampleScenario.node[20].veinsmobility  co2emission  ETV
vector 43373  IntersectionExampleScenario.node[21].veinsmobility  speed  ETV
vector 43374  IntersectionExampleScenario.node[21].veinsmobility  acceleration  ETV
vector 43375  IntersectionExampleScenario.node[21].veinsmobility  co2emission  ETV
43305	269872 4929 1866 5361 43.5 81.75 154 0.973 11.990504229548 502.19143864772 2836.1445340045
43304	274801 4560 1866 5361 43.5 81.75 154 -4.5 2.5 39.529638290405 245.84783351035
43303	279361 4852 1843 5361 43.25 81.75 155 5.6500000953674 16.125 2221.9263801575 32614.013872684
43302	284213 5148 1820 5361 43 81.75 156 483.14999389648 483.14999389648 75371.399047852 36415690.989939
43301	289361 5125 1820 5361 43 81.75 156 184.17810058594 734.16995239258 69966.79510498 35485098.206058
43347	294486 4826 2863 5853 52.5 90.25 152 0.973 12.553400930962 536.20355939384 3314.4401906658
43346	299312 4524 2863 5853 52.5 90.25 152 -3.5787410736084 2.5 42.754949569702 322.78605976978
43345	303836 4709 2834 5853 52.25 90.25 153 5.6500000953674 16.89999961853 2180.3246378899 32832.529626572
43344	308545 5077 2805 5853 52 90.25 154 237.85668945312 483.14999389648 66789.022369385 29826809.712868
43343	313622 5056 2805 5853 52 90.25 154 184.17810058594 483.14999389648 61166.034912109 25980057.660997
vector 43378  IntersectionExampleScenario.node[22].veinsmobility  posx  ETV
vector 43379  IntersectionExampleScenario.node[22].veinsmobility  posy  ETV
vector 43380  IntersectionExampleScenario.node[22].veinsmobility  speed  ETV
vector 43381  IntersectionExampleScenario.node[22].veinsmobility  acceleration  ETV
vector 43382  IntersectionExampleScenario.node[22].veinsmobility  co2emission  ETV
43354	319079 5378 3064 6107 54.25 95.75 167 0.973 11.200708441096 488.36840957327 2405.2572758591
43353	324457 4986 3064 6107 54.25 95.75 167 -3.8647766113281 2.5 35.964826583862 224.48137157792
43352	329443 5268 3037 6107 54 95.75 168 5.6500000953674 15.02499961853 2287.8385353088 31914.768645522
43351	334711 5571 3008 6107 53.75 95.75 169 483.14999389648 734.54188537598 90477.446533203 49457737.54561
43350	340282 5546 3008 6107 53.75 95.75 169 164.94219970703 487.06298828125 66035.173431396 27921966.450408
43284	345828 7452 938 6128 31.5 96.5 261 0.973 11.648172402475 626.84980599478 2998.0689120753
43283	353280 6884 938 6128 31.5 96.5 261 -7.1126251220703 4 37.662351608276 469.40991413758
43282	360164 7085 921 6128 31.25 96.5 262 0 15.64999961853 2218.4003880024 31179.153746204
43281	367249 8672 904 6128 31 96.5 263 486.85000610352 486.85000610352 128041.55160522 62337030.180507
43280	375921 8649 904 6128 31 96.5 263 235.04968261719 785.82187652588 134563.3629837 73086211.222842
43298	384570 7081 1526 6170 39.5 98 235 0.973 11.36141391502 582.09166381307 2769.1154901244
43297	391651 7381 1526 6170 39.5 98 235 -3.9036741256714 2.5000004768372 37.32285118103 327.1127233606
43296	399032 7502 1505 6170 39.25 98 236 0 15.25 2186.4804477375 28444.963871939
43295	406534 7732 1484 6170 39 98 237 486.85000610352 733.74140930176 123736.16030884 65679114.803844
43294	414266 7809 1484 6170 39 98 237 486.85000610352 785.82187652588 131351.6689682 74747928.451968
vector 43385  IntersectionExampleScenario.node[23].veinsmobility  posx  ETV
vector 43386  IntersectionExampleScenario.node[23].veinsmobility  posy  ETV
43312	422229 6744 1980 6247 44.75 100.75 225 0.973 11.36141391502 567.89030423209 2737.4465287172
43311	428973 7097 1980 6247 44.75 100.75 225 -3.8555748462677 2.5000004768372 36.98334312439 354.49224662811
43310	436070 7120 1957 6247 44.5 100.75 226 0 15.25 2181.0672667809 27527.088538395
43309	443190 7487 1934 6247 44.25 100.75 227 486.85000610352 732.5333404541 118829.83612061 63259556.597503
43308	450677 7481 1934 6247 44.25 100.75 227 486.85000610352 785.82187652588 127109.82492828 73055162.189339
vector 43387  IntersectionExampleScenario.node[23].veinsmobility  speed  ETV
43333	458236 6686 2115 6256 46 101 221 0.973 11.54047740176 609.26563930843 2977.0057737602
43332	464922 6761 2115 6256 46 101 221 -4.5 2.5000009536743 41.227170944214 409.45783051482
43331	471683 6982 2086 6256 45.75 101 222 0 16.001482009888 2294.6804860709 31384.885635419
43330	478665 7363 2057 6256 45.5 101 223 486.85000610352 486.85000610352 108567.55136108 52856113.042787
43329	486028 7336 2057 6256 45.5 101 223 239.15673828125 807.09531402588 118878.19882202 67838323.19307
vector 43388  IntersectionExampleScenario.node[23].veinsmobility  acceleration  ETV
vector 43389  IntersectionExampleScenario.node[23].veinsmobility  co2emission  ETV
vector 43392  IntersectionExampleScenario.node[24].veinsmobility  posx  ETV
vector 43393  IntersectionExampleScenario.node[24].veinsmobility  posy  ETV
vector 43394  IntersectionExampleScenario.node[24].veinsmobility  speed  ETV
vector 43395  IntersectionExampleScenario.node[24].veinsmobility  acceleration  ETV
vector 43396  IntersectionExampleScenario.node[24].veinsmobility  co2emission  ETV
43361	493934 5006 4417 6467 69.75 108.25 155 0.973 11.90022389248 500.15632620018 2778.9868925169
43360	498940 4577 4417 6467 69.75 108.25 155 -3.5925788879395 2.5 39.699392318726 250.14584796603
43359	503517 4888 4396 6467 69.5 108.25 156 5.6500000953674 16 2211.3224658966 32374.308685309
43358	508405 5180 4375 6467 69.25 108.25 157 236.20654296875 486.85000610352 68159.958679199 30535758.60097
43357	513585 5210 4375 6467 69.25 108.25 157 483.14999389648 785.82187652588 89800.838661194 53124394.923681
43319	518795 7382 2057 6509 45.5 109.75 258 0.973 12.099024792222 645.16904491212 3268.1113702002
43318	526177 6812 2057 6509 45.5 109.75 258 -9.3936996459961 4 40.717908859253 530.20628783948
43317	532989 6915 2030 6509 45.25 109.75 259 0 16.27499961853 2176.0425856113 31623.661902213
43316	539904 8613 2003 6509 45 109.75 260 486.63604736328 785.82187652588 141292.08368683 78833431.588382
43315	548517 8541 2003 6509 45 109.75 260 237.10626220703 483.14999389648 117734.72955322 54361557.795027
43326	557058 7435 2057 6523 45.5 110.25 260 0.973 11.810082123732 629.78299323427 3081.3569770052
43325	564493 6860 2057 6523 45.5 110.25 260 -7.775092124939 4 38.511121749878 481.7653167427
43324	571353 7011 2030 6523 45.25 110.25 261 0 15.875 2181.7102353573 30752.64212689
43323	578364 8666 2003 6523 45 110.25 262 184.17810058594 483.36395263672 111584.5692749 49601226.162606
43322	587030 8614 2003 6523 45 110.25 262 486.85000610352 734.25172424316 135782.89530945 71465386.891048
43340	595644 7738 2491 6558 49.25 111.5 250 0.973 11.54047740176 611.85299794609 2853.5805058674
43339	603382 7824 2491 6558 49.25 111.5 250 -3.9042773246765 2.5000009536743 37.492597579956 361.18201302982
43338	611206 8152 2462 6558 49 111.5 251 0 15.5 2248.5948173357 30592.63079289
43337	619358 8341 2433 6558 48.75 111.5 252 236.38397216797 793.78281402588 130719.66078949 72202219.261368
43336	627699 8363 2433 6558 48.75 111.5 252 483.14999389648 483.14999389648 121753.79846191 58825346.983747
vector 43399  IntersectionExampleScenario.node[25].veinsmobility  posx  ETV
vector 43400  IntersectionExampleScenario.node[25].veinsmobility  posy  ETV
vector 43406  IntersectionExampleScenario.node[26].veinsmobility  posx  ETV
vector 43407  IntersectionExampleScenario.node[26].veinsmobility  posy  ETV
vector 43401  IntersectionExampleScenario.node[25].veinsmobility  speed  ETV
vector 43402  IntersectionExampleScenario.node[25].veinsmobility  acceleration  ETV
vector 43403  IntersectionExampleScenario.node[25].veinsmobility  co2emission  ETV
vector 43408  IntersectionExampleScenario.node[26].veinsmobility  speed  ETV
vector 43409  IntersectionExampleScenario.node[26].veinsmobility  acceleration  ETV
vector 43410  IntersectionExampleScenario.node[26].veinsmobility  co2emission  ETV
43368	636864 5137 5230 6864 80 119.5 159 0.973 11.810082123732 510.17914445071 2860.4367137133
43367	642001 4817 5230 6864 80 119.5 159 -3.4376411437988 2.5 38.850629806519 284.11405441791
43366	646818 5040 5211 6864 79.75 119.5 160 5.6500000953674 15.875 2192.1819295883 31419.820930094
43365	651858 5364 5192 6864 79.5 119.5 161 184.17810058594 483.14999389648 64029.702514648 27203817.82146
43364	657222 5384 5192 6864 79.5 119.5 161 486.85000610352 735.1961517334 86629.537811279 47552301.009509
vector 43413  IntersectionExampleScenario.node[27].veinsmobility  posx  ETV
vector 43414  IntersectionExampleScenario.node[27].veinsmobility  posy  ETV
vector 43415  IntersectionExampleScenario.node[27].veinsmobility  speed  ETV
vector 43416  IntersectionExampleScenario.node[27].veinsmobility  acceleration  ETV
vector 43417  IntersectionExampleScenario.node[27].veinsmobility  co2emission  ETV
43375	663007 5275 5271 6924 80.5 120.75 162 0.973 11.36141391502 498.04660962162 2605.702682659
43374	668282 4773 5271 6924 80.5 120.75 162 -3.4964065551758 2.5 37.15309715271 266.39968955849
43373	673055 5149 5251 6924 80.25 120.75 163 5.6500000953674 15.25 2185.2570877075 30545.53155198
43372	678204 5490 5230 6924 80 120.75 164 486.85000610352 785.82187652588 93854.859733582 55474393.655254
43371	683694 5491 5230 6924 80 120.75 164 236.24060058594 483.14999389648 70855.865905762 31560645.17558
vector 43420  IntersectionExampleScenario.node[28].veinsmobility  posx  ETV
vector 43421  IntersectionExampleScenario.node[28].veinsmobility  posy  ETV
vector 43422  IntersectionExampleScenario.node[28].veinsmobility  speed  ETV
vector 43423  IntersectionExampleScenario.node[28].veinsmobility  acceleration  ETV
vector 43424  IntersectionExampleScenario.node[28].veinsmobility  co2emission  ETV
vector 43427  IntersectionExampleScenario.node[29].veinsmobility  posx  ETV
vector 43428  IntersectionExampleScenario.node[29].veinsmobility  posy  ETV
vector 43429  IntersectionExampleScenario.node[29].veinsmobility  speed  ETV
vector 43430  IntersectionExampleScenario.node[29].veinsmobility  acceleration  ETV
vector 43431  IntersectionExampleScenario.node[29].veinsmobility  co2emission  ETV
vector 43434  IntersectionExampleScenario.node[30].veinsmobility  posx  ETV
vector 43435  IntersectionExampleScenario.node[30].veinsmobility  posy  ETV
vector 43441  IntersectionExampleScenario.node[31].veinsmobility  posx  ETV
vector 43442  IntersectionExampleScenario.node[31].veinsmobility  posy  ETV
vector 43436  IntersectionExampleScenario.node[30].veinsmobility  speed  ETV
vector 43437  IntersectionExampleScenario.node[30].veinsmobility  acceleration  ETV
vector 43438  IntersectionExampleScenario.node[30].veinsmobility  co2emission  ETV
vector 43443  IntersectionExampleScenario.node[31].veinsmobility  speed  ETV
vector 43444  IntersectionExampleScenario.node[31].veinsmobility  acceleration  ETV
vector 43445  IntersectionExampleScenario.node[31].veinsmobility  co2emission  ETV
vector 43448  IntersectionExampleScenario.node[32].veinsmobility  posx  ETV
vector 43449  IntersectionExampleScenario.node[32].veinsmobility  posy  ETV
vector 43450  IntersectionExampleScenario.node[32].veinsmobility  speed  ETV
vector 43451  IntersectionExampleScenario.node[32].veinsmobility  acceleration  ETV
vector 43452  IntersectionExampleScenario.node[32].veinsmobility  co2emission  ETV
vector 43455  IntersectionExampleScenario.node[33].veinsmobility  posx  ETV
vector 43456  IntersectionExampleScenario.node[33].veinsmobility  posy  ETV
43382	691344 6160 5961 7965 92.25 141.25 197 0.973 11.648172402475 568.23916147086 2932.0383299088
43381	697504 5687 5961 7965 92.25 141.25 197 -7.03919506073 4 38.341367721558 478.13103295482
43380	703191 5991 5946 7965 92 141.25 198 0 15.64999961853 2200.0624997616 31109.684844129
43379	709182 6731 5931 7965 91.75 141.25 199 237.29504394531 486.85000610352 88508.202484131 40405455.269209
43378	715913 6728 5931 7965 91.75 141.25 199 483.14999389648 785.82187652588 110916.43605804 63764004.106926
vector 43462  IntersectionExampleScenario.node[34].veinsmobility  posx  ETV
vector 43463  IntersectionExampleScenario.node[34].veinsmobility  posy  ETV
vector 43457  IntersectionExampleScenario.node[33].veinsmobility  speed  ETV
vector 43458  IntersectionExampleScenario.node[33].veinsmobility  acceleration  ETV
vector 43459  IntersectionExampleScenario.node[33].veinsmobility  co2emission  ETV
vector 43464  IntersectionExampleScenario.node[34].veinsmobility  speed  ETV
vector 43465  IntersectionExampleScenario.node[34].veinsmobility  acceleration  ETV
vector 43466  IntersectionExampleScenario.node[34].veinsmobility  co2emission  ETV
vector 43469  IntersectionExampleScenario.node[35].veinsmobility  posx  ETV
vector 43470  IntersectionExampleScenario.node[35].veinsmobility  posy  ETV
vector 43471  IntersectionExampleScenario.node[35].veinsmobility  speed  ETV
vector 43472  IntersectionExampleScenario.node[35].veinsmobility  acceleration  ETV
vector 43473  IntersectionExampleScenario.node[35].veinsmobility  co2emission  ETV
vector 43476  IntersectionExampleScenario.node[36].veinsmobility  posx  ETV
vector 43477  IntersectionExampleScenario.node[36].veinsmobility  posy  ETV
vector 43478  IntersectionExampleScenario.node[36].veinsmobility  speed  ETV
vector 43479  IntersectionExampleScenario.node[36].veinsmobility  acceleration  ETV
vector 43480  IntersectionExampleScenario.node[36].veinsmobility  co2emission  ETV
43396	724091 5014 6383 8151 105.25 143.75 155 0.96333723109819 12.099024792222 549.47271978419 3595.3419881877
43395	729105 4784 6383 8151 105.25 143.75 155 -3.6649322509766 2.5 40.208654403687 316.69814198555
43394	733889 5063 6376 8151 105 143.75 156 5.6500000953674 16.27499961853 2216.9340219498 32352.656592913
43393	738952 5339 6369 8151 104.75 143.75 157 486.85000610352 486.85000610352 76435.450958252 37212599.76555
43392	744291 5318 6369 8151 104.75 143.75 157 236.72747802734 785.82187652588 82128.176200867 47019644.729996
vector 43483  IntersectionExampleScenario.node[37].veinsmobility  posx  ETV
vector 43484  IntersectionExampleScenario.node[37].veinsmobility  posy  ETV
vector 43485  IntersectionExampleScenario.node[37].veinsmobility  speed  ETV
vector 43486  IntersectionExampleScenario.node[37].veinsmobility  acceleration  ETV
vector 43487  IntersectionExampleScenario.node[37].veinsmobility  co2emission  ETV
vector 43490  IntersectionExampleScenario.node[38].veinsmobility  posx  ETV
vector 43491  IntersectionExampleScenario.node[38].veinsmobility  posy  ETV
vector 43492  IntersectionExampleScenario.node[38].veinsmobility  speed  ETV
vector 43493  IntersectionExampleScenario.node[38].veinsmobility  acceleration  ETV
vector 43494  IntersectionExampleScenario.node[38].veinsmobility  co2emission  ETV
vector 43497  IntersectionExampleScenario.node[39].veinsmobility  posx  ETV
vector 43498  IntersectionExampleScenario.node[39].veinsmobility  posy  ETV
vector 43499  IntersectionExampleScenario.node[39].veinsmobility  speed  ETV
vector 43504  IntersectionExampleScenario.node[40].veinsmobility  posx  ETV
vector 43505  IntersectionExampleScenario.node[40].veinsmobility  posy  ETV
vector 43500  IntersectionExampleScenario.node[39].veinsmobility  acceleration  ETV
vector 43501  IntersectionExampleScenario.node[39].veinsmobility  co2emission  ETV
vector 43506  IntersectionExampleScenario.node[40].veinsmobility  speed  ETV
vector 43507  IntersectionExampleScenario.node[40].veinsmobility  acceleration  ETV
vector 43508  IntersectionExampleScenario.node[40].veinsmobility  co2emission  ETV
vector 43511  IntersectionExampleScenario.node[41].veinsmobility  posx  ETV
vector 43512  IntersectionExampleScenario.node[41].veinsmobility  posy  ETV
vector 43513  IntersectionExampleScenario.node[41].veinsmobility  speed  ETV
vector 43514  IntersectionExampleScenario.node[41].veinsmobility  acceleration  ETV
vector 43515  IntersectionExampleScenario.node[41].veinsmobility  co2emission  ETV
43403	751614 5199 6655 9245 114.75 153.75 157 0.973 11.648172402475 489.93848290835 2630.9394071346
43402	756813 4766 6655 9245 114.75 153.75 157 -3.2447280883789 2.5 38.341367721558 231.96890981277
43401	761579 5090 6644 9245 114.5 153.75 158 5.6500000953674 15.64999961853 2204.4889039993 31683.154117764
43400	766669 5394 6635 9245 114.25 153.75 159 237.70812988281 486.85000610352 69056.387145996 30939670.996897
43399	772063 5399 6635 9245 114.25 153.75 159 483.14999389648 785.82187652588 90941.229881287 53788234.538224
43389	777462 6671 6265 9431 101.25 155.25 217 0.973 11.648172402475 587.69916147086 2950.9729099088
43388	784133 6118 6265 9431 101.25 155.25 217 -7.03919506073 4 38.341367721558 478.13103295482
43387	790251 6423 6256 9431 101 155.25 218 0 15.64999961853 2200.0624997616 31109.684844129
43386	796674 7441 6247 9431 100.75 155.25 219 483.14999389648 785.82187652588 120884.43593597 68732055.185246
43385	804115 7442 6247 9431 100.75 155.25 219 483.14999389648 732.70495605469 114184.79745483 60607320.877875
43410	811557 5372 6666 9462 115 155.5 163 0.973 11.450879080643 493.36567365619 2579.1520093586
43409	816929 5002 6666 9462 115 155.5 163 -3.0185089111328 2.5 36.474081039429 248.90789649048
43408	821931 5284 6655 9462 114.75 155.5 164 5.6500000953674 15.375 2207.7461280823 30645.686189892
43407	827215 5591 6644 9462 114.5 155.5 165 184.17810058594 486.87789916992 65848.925994873 28090423.846453
43406	832806 5597 6644 9462 114.5 155.5 165 236.60888671875 486.85000610352 71662.602874756 32116045.331977
vector 43518  IntersectionExampleScenario.node[42].veinsmobility  posx  ETV
vector 43519  IntersectionExampleScenario.node[42].veinsmobility  posy  ETV
vector 43520  IntersectionExampleScenario.node[42].veinsmobility  speed  ETV
vector 43521  IntersectionExampleScenario.node[42].veinsmobility  acceleration  ETV
vector 43522  IntersectionExampleScenario.node[42].veinsmobility  co2emission  ETV
vector 43525  IntersectionExampleScenario.node[43].veinsmobility  posx  ETV
vector 43526  IntersectionExampleScenario.node[43].veinsmobility  posy  ETV
vector 43527  IntersectionExampleScenario.node[43].veinsmobility  speed  ETV
vector 43528  IntersectionExampleScenario.node[43].veinsmobility  acceleration  ETV
vector 43529  IntersectionExampleScenario.node[43].veinsmobility  co2emission  ETV
43417	839205 6426 6924 11367 120.75 172 206 0.973 11.810082123732 587.60271731942 3081.9273695155
43416	845631 5991 6924 11367 120.75 172 206 -8.953987121582 4 39.869146347046 513.21946711852
43415	851622 6166 6911 11367 120.5 172 207 0 15.875 2182.0938510895 31348.830458883
43414	857788 7050 6898 11367 120.25 172 208 235.62799072266 483.14999389648 92420.438568115 42079027.249997
43413	864838 7097 6898 11367 120.25 172 208 184.17810058594 483.36395263672 86267.226196289 37707829.135399
vector 43532  IntersectionExampleScenario.node[44].veinsmobility  posx  ETV
vector 43533  IntersectionExampleScenario.node[44].veinsmobility  posy  ETV
vector 43534  IntersectionExampleScenario.node[44].veinsmobility  speed  ETV
vector 43535  IntersectionExampleScenario.node[44].veinsmobility  acceleration  ETV
vector 43536  IntersectionExampleScenario.node[44].veinsmobility  co2emission  ETV
vector 43539  IntersectionExampleScenario.node[45].veinsmobility  posx  ETV
vector 43540  IntersectionExampleScenario.node[45].veinsmobility  posy  ETV
vector 43541  IntersectionExampleScenario.node[45].veinsmobility  speed  ETV
43424	872568 6086 7218 11649 126.5 174.75 194 0.973 11.810082123732 551.64559676279 2952.8675361035
43423	878654 6458 7218 11649 126.5 174.75 194 -2.7532196044922 2.5 38.511121749878 315.61712714476
43422	885112 6412 7205 11649 126.25 174.75 195 1.1960154771805 15.875 2189.5323152542 29448.836620062
43421	891524 6717 7192 11649 126 174.75 196 235.32861328125 483.14999389648 86439.522216797 39133973.241619
43420	898241 6698 7192 11649 126 174.75 196 184.17810058594 483.14999389648 79854.384979248 34370114.730192
vector 43542  IntersectionExampleScenario.node[45].veinsmobility  acceleration  ETV
vector 43543  IntersectionExampleScenario.node[45].veinsmobility  co2emission  ETV
vector 43546  IntersectionExampleScenario.node[46].veinsmobility  posx  ETV
vector 43547  IntersectionExampleScenario.node[46].veinsmobility  posy  ETV
vector 43548  IntersectionExampleScenario.node[46].veinsmobility  speed  ETV
vector 43549  IntersectionExampleScenario.node[46].veinsmobility  acceleration  ETV
vector 43550  IntersectionExampleScenario.node[46].veinsmobility  co2emission  ETV
43494	905509 5222 8337 12564 145.75 184 154 0.973 11.648172402475 472.37063277033 2468.6221642102
43493	910731 4750 8337 12564 145.75 184 154 -3.3639030456543 2.5 38.511121749878 193.75141553485
43492	915481 5129 8312 12564 145.5 184 155 5.6500000953674 15.64999961853 2221.424943924 32483.242225398
43491	920610 5399 8287 12564 145.25 184 156 483.14999389648 483.14999389648 75371.399047852 36415690.989939
43490	926009 5371 8287 12564 145.25 184 156 184.17810058594 734.3458404541 70055.718399048 35615242.966205
43438	931380 6193 7712 12721 136.75 185.75 197 0.93438186594183 12.26218747632 589.26316288905 3319.1156262903
43437	937573 5935 7712 12721 136.75 185.75 197 -7.2880325317383 4 41.057416915894 496.17494209542
43436	943508 6010 7695 12721 136.5 185.75 198 0 16.5 2183.7521471977 31817.285757586
43435	949518 6783 7680 12721 136.25 185.75 199 486.85000610352 734.55892944336 104822.07423401 56203557.558513
43434	956301 6861 7680 12721 136.25 185.75 199 486.63604736328 785.82187652588 110874.07631683 63661010.674843
vector 43553  IntersectionExampleScenario.node[47].veinsmobility  posx  ETV
vector 43554  IntersectionExampleScenario.node[47].veinsmobility  posy  ETV
43480	963316 5499 8130 12816 143.5 187 175 0.973 12.099024792222 540.61907268109 3119.8888703354
43479	968815 5647 8130 12816 143.5 187 175 -3.8711247444153 2.5 40.038900375366 388.44469311172
43478	974462 5730 8109 12816 143.25 187 176 0 16.27499961853 2087.0845683813 29271.932012793
43477	980192 6123 8088 12816 143 187 177 486.85000610352 486.85000610352 86172.451080322 41953058.33441
43476	986315 6108 8088 12816 143 187 177 237.86627197266 755.05781555176 89956.743659973 49129706.452353
vector 43560  IntersectionExampleScenario.node[48].veinsmobility  posx  ETV
vector 43561  IntersectionExampleScenario.node[48].veinsmobility  posy  ETV
vector 43555  IntersectionExampleScenario.node[47].veinsmobility  speed  ETV
vector 43556  IntersectionExampleScenario.node[47].veinsmobility  acceleration  ETV
vector 43557  IntersectionExampleScenario.node[47].veinsmobility  co2emission  ETV
vector 43562  IntersectionExampleScenario.node[48].veinsmobility  speed  ETV
vector 43563  IntersectionExampleScenario.node[48].veinsmobility  acceleration  ETV
vector 43564  IntersectionExampleScenario.node[48].veinsmobility  co2emission  ETV
vector 43567  IntersectionExampleScenario.node[49].veinsmobility  posx  ETV
vector 43568  IntersectionExampleScenario.node[49].veinsmobility  posy  ETV
43459	993225 6464 7997 13129 141.75 191.25 199 0.973 10.917724113434 571.22710915394 2845.3731801614
43458	999689 6393 7997 13129 141.75 191.25 199 -4.5 2.5 34.097539901733 462.59434565324
43457	1006082 6604 7980 13129 141.5 191.25 200 4.2749996185303 14.627361297607 2186.2751436234 26582.817564441
43456	1012686 6946 7965 13129 141.25 191.25 201 486.85000610352 734.41566467285 106709.95823669 57721120.335682
43455	1019632 6947 7965 13129 141.25 191.25 201 486.85000610352 785.82187652588 115751.33872223 68783877.773308
43466	1026579 6423 8014 13129 142 191.25 198 0.973 11.54047740176 599.85303342225 3049.770154421
43465	1033002 6255 8014 13129 142 191.25 198 -4.5 2.5 38.680875778198 442.01411102429
43464	1039257 6657 7997 13129 141.75 191.25 199 2.5098748207092 15.5 2318.3973743916 30001.925172147
43463	1045914 6924 7980 13129 141.5 191.25 200 486.85000610352 486.85000610352 97370.001220703 47404585.688598
43462	1052838 6886 7980 13129 141.5 191.25 200 235.66815185547 810.23281097412 109286.50879669 64897482.786998
vector 43569  IntersectionExampleScenario.node[49].veinsmobility  speed  ETV
vector 43570  IntersectionExampleScenario.node[49].veinsmobility  acceleration  ETV
vector 43571  IntersectionExampleScenario.node[49].veinsmobility  co2emission  ETV
43487	1059971 6389 8218 13239 144.5 193 195 0.973 10.65035628006 571.97157841767 2656.0965773535
43486	1066360 6515 8218 13239 144.5 193 195 -4.0038604736328 2.5 42.481142044067 297.62472371461
43485	1072875 6588 8195 13239 144.25 193 196 3.0128140449524 15.577120780945 2323.8524968624 30416.693694881
43484	1079463 6827 8172 13239 144 193 197 486.85000610352 486.85000610352 95909.451202393 46693516.90327
43483	1086290 6808 8172 13239 144 193 197 238.00213623047 814.02386474609 107603.30043793 63856491.37072
vector 43574  IntersectionExampleScenario.node[50].veinsmobility  posx  ETV
vector 43575  IntersectionExampleScenario.node[50].veinsmobility  posy  ETV
vector 43581  IntersectionExampleScenario.node[51].veinsmobility  posx  ETV
vector 43582  IntersectionExampleScenario.node[51].veinsmobility  posy  ETV
vector 43576  IntersectionExampleScenario.node[50].veinsmobility  speed  ETV
vector 43583  IntersectionExampleScenario.node[51].veinsmobility  speed  ETV
vector 43577  IntersectionExampleScenario.node[50].veinsmobility  acceleration  ETV
vector 43578  IntersectionExampleScenario.node[50].veinsmobility  co2emission  ETV
vector 43584  IntersectionExampleScenario.node[51].veinsmobility  acceleration  ETV
vector 43585  IntersectionExampleScenario.node[51].veinsmobility  co2emission  ETV
vector 43588  IntersectionExampleScenario.node[52].veinsmobility  posx  ETV
vector 43589  IntersectionExampleScenario.node[52].veinsmobility  posy  ETV
vector 43590  IntersectionExampleScenario.node[52].veinsmobility  speed  ETV
vector 43591  IntersectionExampleScenario.node[52].veinsmobility  acceleration  ETV
vector 43592  IntersectionExampleScenario.node[52].veinsmobility  co2emission  ETV
43445	1094301 7677 7729 13744 137 200.25 254 0.973 12.44402232946 663.9643214953 3306.0018532925
43444	1101978 7079 7729 13744 137 200.25 254 -4.5 2.5 42.754949569702 515.43152777705
43443	1109057 7271 7712 13744 136.75 200.25 255 0 16.75 2273.3804512024 33835.565931777
43442	1116328 8832 7695 13744 136.5 200.25 256 168.58435058594 731.66914367676 114864.16818237 55860292.660115
43441	1125160 8864 7695 13744 136.5 200.25 256 486.85000610352 486.85000610352 124633.6015625 60677869.681406
vector 43595  IntersectionExampleScenario.node[53].veinsmobility  posx  ETV
vector 43596  IntersectionExampleScenario.node[53].veinsmobility  posy  ETV
43431	1134178 8022 7589 13785 134.5 200.75 266 0.973 11.36141391502 616.19767797725 2812.7854100991
43430	1142200 7327 7589 13785 134.5 200.75 266 -7.5492124557495 4 35.964826583862 470.20912911166
43429	1149527 7590 7576 13785 134.25 200.75 267 0 15.25 2176.5375266075 29657.885748113
43428	1157117 9244 7563 13785 134 200.75 268 184.17810058594 483.36395263672 114106.33639526 50702256.736709
43427	1166361 9206 7563 13785 134 200.75 268 486.85000610352 733.14964294434 138966.46755981 73181654.544259
vector 43597  IntersectionExampleScenario.node[53].veinsmobility  speed  ETV
vector 43598  IntersectionExampleScenario.node[53].veinsmobility  acceleration  ETV
vector 43599  IntersectionExampleScenario.node[53].veinsmobility  co2emission  ETV
vector 43602  IntersectionExampleScenario.node[54].veinsmobility  posx  ETV
vector 43603  IntersectionExampleScenario.node[54].veinsmobility  posy  ETV
vector 43609  IntersectionExampleScenario.node[55].veinsmobility  posx  ETV
vector 43610  IntersectionExampleScenario.node[55].veinsmobility  posy  ETV
vector 43604  IntersectionExampleScenario.node[54].veinsmobility  speed  ETV
vector 43605  IntersectionExampleScenario.node[54].veinsmobility  acceleration  ETV
vector 43606  IntersectionExampleScenario.node[54].veinsmobility  co2emission  ETV
vector 43611  IntersectionExampleScenario.node[55].veinsmobility  speed  ETV
43452	1176447 7592 7926 13896 140.5 202 247 0.973 11.648172402475 622.27287464896 2912.3281386202
43451	1184039 7508 7926 13896 140.5 202 247 -6.8117866516113 4 38.915063858032 450.69658026128
43450	1191547 7532 7913 13896 140.25 202 248 0 15.64999961853 2196.0717844963 30774.492578898
43449	1199079 8624 7900 13896 140 202 249 483.14999389648 785.82187652588 135751.46390533 76090993.874281
43448	1207703 8626 7900 13896 140 202 249 483.14999389648 731.71569824219 128791.16146851 67733524.02369
vector 43612  IntersectionExampleScenario.node[55].veinsmobility  acceleration  ETV
vector 43613  IntersectionExampleScenario.node[55].veinsmobility  co2emission  ETV
43473	1216498 7941 8069 14046 142.75 203.5 244 0.973 11.648172402475 642.99989319938 3056.6393845943
43472	1224439 7981 8069 14046 142.75 203.5 244 -4.5 2.5 41.073377609253 426.82543300018
43471	1232420 8116 8050 14046 142.5 203.5 245 0 15.934155464172 2280.6152731217 32839.159177433
43470	1240536 8522 8031 14046 142.25 203.5 246 483.14999389648 802.70781707764 136060.46900177 77555339.844129
43469	1249058 8533 8031 14046 142.25 203.5 246 483.14999389648 734.65614318848 127025.02001953 66686232.128023
43515	1257591 6728 8997 14146 151.75 204.5 212 0.973 11.200708441096 549.97714437003 2620.7352308582
43514	1264319 6990 8997 14146 151.75 204.5 212 -3.9054889678955 2.5000019073486 35.625318527222 330.15760528937
43513	1271309 7210 8966 14146 151.5 204.5 213 0 15.02499961853 2221.493148271 28647.615220378
43512	1278519 7419 8935 14146 151.25 204.5 214 184.17810058594 734.62933349609 96219.019042969 47583601.390681
43511	1285938 7454 8935 14146 151.25 204.5 214 486.85000610352 486.85000610352 104185.90130615 50722906.6868
43501	1293392 7309 8616 14262 148.5 205.75 230 0.973 11.810082123732 599.93623173448 3072.9067810298
43500	1300701 7623 8616 14262 148.5 205.75 230 -3.9319665431976 2.5 39.869146347046 351.82143835254
43499	1308324 7716 8589 14262 148.25 205.75 231 0 15.875 2190.1668015346 29107.491262303
43498	1316040 8052 8562 14262 148 205.75 232 486.85000610352 785.82187652588 129077.94330597 73692825.538742
43497	1324092 8062 8562 14262 148 205.75 232 235.64373779297 483.14999389648 104019.13250732 47684185.283795
43522	1332154 6100 10082 14423 161 207.5 187 0.973 11.200708441096 536.65691734284 2740.5274662762
43521	1338254 5928 10082 14423 161 207.5 187 -3.8072700500488 2.5000019073486 35.625318527222 319.44541738583
43520	1344182 6267 10053 14423 160.75 207.5 188 4.9366207122803 15.02499961853 2180.3354530334 27531.099654298
43519	1350449 6583 10024 14423 160.5 207.5 189 184.17810058594 483.14999389648 75793.864685059 32203592.229187
43518	1357032 6608 10024 14423 160.5 207.5 189 486.85000610352 732.40251159668 100516.82452393 54464121.659204
43529	1363640 5895 10521 14561 164.75 209 178 0.973 11.36141391502 524.93222963274 2791.7282624075
43528	1369535 5787 10521 14561 164.75 209 178 -3.3773918151855 2.5 36.304327011108 287.62760935526
43527	1375322 5928 10490 14561 164.5 209 179 5.6500000953674 15.25 2188.0982599258 28480.69892066
43526	1381250 6278 10459 14561 164.25 209 180 486.85000610352 785.82187652588 102611.75830841 60285706.664874
43525	1387528 6296 10459 14561 164.25 209 180 235.36822509766 483.14999389648 78418.185119629 35166868.410446
vector 43616  IntersectionExampleScenario.node[56].veinsmobility  posx  ETV
vector 43617  IntersectionExampleScenario.node[56].veinsmobility  posy  ETV
vector 43618  IntersectionExampleScenario.node[56].veinsmobility  speed  ETV
vector 43619  IntersectionExampleScenario.node[56].veinsmobility  acceleration  ETV
vector 43620  IntersectionExampleScenario.node[56].veinsmobility  co2emission  ETV
vector 43623  IntersectionExampleScenario.node[57].veinsmobility  posx  ETV
vector 43624  IntersectionExampleScenario.node[57].veinsmobility  posy  ETV
vector 43630  IntersectionExampleScenario.node[58].veinsmobility  posx  ETV
vector 43631  IntersectionExampleScenario.node[58].veinsmobility  posy  ETV
vector 43625  IntersectionExampleScenario.node[57].veinsmobility  speed  ETV
vector 43632  IntersectionExampleScenario.node[58].veinsmobility  speed  ETV
vector 43626  IntersectionExampleScenario.node[57].veinsmobility  acceleration  ETV
vector 43627  IntersectionExampleScenario.node[57].veinsmobility  co2emission  ETV
vector 43633  IntersectionExampleScenario.node[58].veinsmobility  acceleration  ETV
vector 43634  IntersectionExampleScenario.node[58].veinsmobility  co2emission  ETV
43508	1395027 8418 8674 15356 149 218 277 0.973 11.200708441096 626.58858422291 2726.2894694822
43507	1403445 7520 8674 15356 149 218 277 -7.056640625 4 35.625318527222 447.33551271322
43506	1410965 7960 8645 15356 148.75 218 278 0 15.02499961853 2229.3784992695 30216.315228808
43505	1418925 9645 8616 15356 148.5 218 279 234.9931640625 483.14999389648 126124.53591919 58178363.352924
43504	1428570 9677 8616 15356 148.5 218 279 172.9296875 483.36395263672 118280.80004883 52506607.972375
vector 43637  IntersectionExampleScenario.node[59].veinsmobility  posx  ETV
vector 43638  IntersectionExampleScenario.node[59].veinsmobility  posy  ETV
vector 43639  IntersectionExampleScenario.node[59].veinsmobility  speed  ETV
vector 43640  IntersectionExampleScenario.node[59].veinsmobility  acceleration  ETV
vector 43641  IntersectionExampleScenario.node[59].veinsmobility  co2emission  ETV
43550	1438648 5664 12116 15669 179.5 221.75 170 0.973 11.200708441096 534.24649388854 2948.9993672692
43549	1444312 5365 12116 15669 179.5 221.75 170 -3.1509437561035 2.5 35.964826583862 320.67663729031
43548	1449677 5680 12091 15669 179.25 221.75 171 5.6500000953674 15.02499961853 2182.4145307541 29105.410060566
43547	1455357 6011 12066 15669 179 221.75 172 236.76391601562 483.14999389648 74591.392486572 33321361.12942
43546	1461368 5993 12066 15669 179 221.75 172 184.17810058594 483.17645263672 68557.021087646 29108374.27689
vector 43644  IntersectionExampleScenario.node[60].veinsmobility  posx  ETV
vector 43645  IntersectionExampleScenario.node[60].veinsmobility  posy  ETV
vector 43646  IntersectionExampleScenario.node[60].veinsmobility  speed  ETV
vector 43647  IntersectionExampleScenario.node[60].veinsmobility  acceleration  ETV
vector 43648  IntersectionExampleScenario.node[60].veinsmobility  co2emission  ETV
vector 43651  IntersectionExampleScenario.node[61].veinsmobility  posx  ETV
vector 43652  IntersectionExampleScenario.node[61].veinsmobility  posy  ETV
43564	1467916 5107 12883 15963 187.75 225 150 0.96333723109819 12.099024792222 483.82598561609 2757.4898556101
43563	1473023 4986 12883 15963 187.75 225 150 -3.6996917724609 2.5 40.208654403687 218.6021460431
43562	1478009 5040 12860 15963 187.5 225 151 5.6500000953674 16.27499961853 2211.670381546 33135.0706241
43561	1483049 5320 12837 15963 187.25 225 152 483.14999389648 483.14999389648 73438.799072266 35481955.32353
43560	1488369 5288 12837 15963 187.25 225 152 184.17810058594 731.77069091797 67981.154312134 34421837.921494
vector 43653  IntersectionExampleScenario.node[61].veinsmobility  speed  ETV
vector 43654  IntersectionExampleScenario.node[61].veinsmobility  acceleration  ETV
vector 43655  IntersectionExampleScenario.node[61].veinsmobility  co2emission  ETV
vector 43658  IntersectionExampleScenario.node[62].veinsmobility  posx  ETV
vector 43659  IntersectionExampleScenario.node[62].veinsmobility  posy  ETV
vector 43660  IntersectionExampleScenario.node[62].veinsmobility  speed  ETV
vector 43661  IntersectionExampleScenario.node[62].veinsmobility  acceleration  ETV
vector 43662  IntersectionExampleScenario.node[62].veinsmobility  co2emission  ETV
vector 43665  IntersectionExampleScenario.node[63].veinsmobility  posx  ETV
vector 43666  IntersectionExampleScenario.node[63].veinsmobility  posy  ETV
vector 43667  IntersectionExampleScenario.node[63].veinsmobility  speed  ETV
vector 43672  IntersectionExampleScenario.node[64].veinsmobility  posx  ETV
vector 43673  IntersectionExampleScenario.node[64].veinsmobility  posy  ETV
vector 43668  IntersectionExampleScenario.node[63].veinsmobility  acceleration  ETV
vector 43669  IntersectionExampleScenario.node[63].veinsmobility  co2emission  ETV
vector 43674  IntersectionExampleScenario.node[64].veinsmobility  speed  ETV
vector 43675  IntersectionExampleScenario.node[64].veinsmobility  acceleration  ETV
vector 43676  IntersectionExampleScenario.node[64].veinsmobility  co2emission  ETV
43536	1495107 7214 11521 16602 173.5 231.25 232 0.973 11.648172402475 614.32738382239 3138.4752701632
43535	1502321 6785 11521 16602 173.5 231.25 232 -8.4715509414673 4 38.511121749878 524.46438652366
43534	1509106 6964 11494 16602 173.25 231.25 233 0 15.653371810913 2213.4345605373 31524.783514498
43533	1516070 8189 11467 16602 173 231.25 234 486.85000610352 486.85000610352 113922.90142822 55463365.25566
43532	1524259 8168 11467 16602 173 231.25 234 236.02325439453 785.82187652588 120191.22925568 65908684.935093
43543	1532427 7781 11676 16774 175 233 233 0.973 11.36141391502 599.81548923946 2824.6426536881
43542	1540208 7539 11676 16774 175 233 233 -4.5 2.5000000298023 37.15309715271 425.41608404798
43541	1547747 7877 11649 16774 174.75 233 234 0 15.25 2265.5652053887 30920.438949528
43540	1555624 8205 11622 16774 174.5 233 235 486.85000610352 733.23634338379 122750.62159729 65188932.825395
43539	1563829 8203 11622 16774 174.5 233 235 486.85000610352 806.11563110352 131521.31253815 75950243.581078
43571	1572032 5747 13163 16935 191.75 234.75 173 0.973 11.200708441096 504.69254035427 2600.7472731434
43570	1577779 5558 13163 16935 191.75 234.75 173 -2.0727005004883 2.5 35.795072555542 245.67871488248
43569	1583337 5870 13146 16935 191.5 234.75 174 5.6500000953674 15.02499961853 2223.6325159073 29658.302138887
43568	1589207 6127 13129 16935 191.25 234.75 175 486.85000610352 486.85000610352 85198.751068115 41479012.477524
43567	1595334 6112 13129 16935 191.25 234.75 175 235.17626953125 785.82187652588 91269.500862122 51915158.904542
vector 43679  IntersectionExampleScenario.node[65].veinsmobility  posx  ETV
vector 43680  IntersectionExampleScenario.node[65].veinsmobility  posy  ETV
vector 43681  IntersectionExampleScenario.node[65].veinsmobility  speed  ETV
vector 43682  IntersectionExampleScenario.node[65].veinsmobility  acceleration  ETV
vector 43683  IntersectionExampleScenario.node[65].veinsmobility  co2emission  ETV
43578	1601847 5170 13517 17045 197.5 236 155 0.973 11.200708441096 504.34164053137 2660.785660389
43577	1607017 5254 13517 17045 197.5 236 155 -4.2738456726074 2.5 41.622716903687 214.87957567608
43576	1612271 5238 13498 17045 197.25 236 156 5.6500000953674 16.191192626953 2219.8320016861 32379.886994198
43575	1617509 5493 13479 17045 197 236 157 486.85000610352 486.85000610352 76435.450958252 37212599.76555
43574	1623002 5484 13479 17045 197 236 157 236.32470703125 785.82187652588 82200.627571106 47083175.134489
vector 43686  IntersectionExampleScenario.node[66].veinsmobility  posx  ETV
vector 43687  IntersectionExampleScenario.node[66].veinsmobility  posy  ETV
vector 43688  IntersectionExampleScenario.node[66].veinsmobility  speed  ETV
vector 43689  IntersectionExampleScenario.node[66].veinsmobility  acceleration  ETV
vector 43690  IntersectionExampleScenario.node[66].veinsmobility  co2emission  ETV
vector 43693  IntersectionExampleScenario.node[67].veinsmobility  posx  ETV
vector 43694  IntersectionExampleScenario.node[67].veinsmobility  posy  ETV
vector 43695  IntersectionExampleScenario.node[67].veinsmobility  speed  ETV
vector 43696  IntersectionExampleScenario.node[67].veinsmobility  acceleration  ETV
vector 43697  IntersectionExampleScenario.node[67].veinsmobility  co2emission  ETV
43613	1629288 5249 13921 17466 202.25 240.25 153 0.97223939240464 11.648172402475 470.78903913374 2481.2658624801
43612	1634537 4921 13921 17466 202.25 240.25 153 -3.0926322937012 2.5 38.680875778198 189.28579845853
43611	1639458 5162 13896 17466 202 240.25 154 5.6500000953674 15.64999961853 2209.5595989227 32360.134831138
43610	1644620 5425 13871 17466 201.75 240.25 155 486.85000610352 486.85000610352 75461.750946045 36738553.908664
43609	1650045 5400 13871 17466 201.75 240.25 155 238.59857177734 785.82187652588 80970.141975403 46382175.769198
vector 43700  IntersectionExampleScenario.node[68].veinsmobility  posx  ETV
vector 43701  IntersectionExampleScenario.node[68].veinsmobility  posy  ETV
vector 43702  IntersectionExampleScenario.node[68].veinsmobility  speed  ETV
vector 43703  IntersectionExampleScenario.node[68].veinsmobility  acceleration  ETV
vector 43704  IntersectionExampleScenario.node[68].veinsmobility  co2emission  ETV
43557	1655846 7209 12860 17907 187.5 245 231 0.973 11.810082123732 609.82249147058 3085.2097200216
43556	1663055 6602 12860 17907 187.5 245 231 -7.26416015625 4 39.699392318726 483.29115084588
43555	1669657 6871 12837 17907 187.25 245 232 0 15.875 2180.8752837181 31208.171219839
43554	1676528 8126 12816 17907 187 245 233 184.17810058594 483.36395263672 98030.466827393 43245937.705487
43553	1684654 8084 12816 17907 187 245 233 486.85000610352 733.87629699707 121498.9122467 64400108.762033
vector 43707  IntersectionExampleScenario.node[69].veinsmobility  posx  ETV
vector 43708  IntersectionExampleScenario.node[69].veinsmobility  posy  ETV
vector 43709  IntersectionExampleScenario.node[69].veinsmobility  speed  ETV
43585	1692970 6310 13517 18084 197.5 247 199 0.973 12.099024792222 574.43050966467 3148.6743616371
43584	1699280 6605 13517 18084 197.5 247 199 -2.1758155822754 2.5 41.227170944214 322.67901066417
43583	1705885 6708 13498 18084 197.25 247 200 0.85987722873688 16.27499961853 2178.3929903507 29627.386475164
43582	1712593 6998 13479 18084 197 247 201 184.17810058594 483.14999389648 82147.324707031 35386603.16678
43581	1719591 7027 13479 18084 197 247 201 486.85000610352 731.4983215332 105602.4954834 56439736.218134
vector 43710  IntersectionExampleScenario.node[69].veinsmobility  acceleration  ETV
vector 43711  IntersectionExampleScenario.node[69].veinsmobility  co2emission  ETV
43606	1726787 6043 13896 18176 202 248 185 0.973 12.099024792222 566.13799139879 3183.3473191551
43605	1732830 5993 13896 18176 202 248 185 -4.5 2.5000009536743 41.396924972534 400.3908982946
43604	1738823 6300 13871 18176 201.75 248 186 2.6474611759186 16.27499961853 2104.6303853989 28681.384023989
43603	1745123 6519 13848 18176 201.5 248 187 213.44647216797 734.56018066406 85199.005004883 42295045.408845
43602	1751642 6544 13848 18176 201.5 248 187 486.85000610352 486.85000610352 91040.951141357 44323287.61884
vector 43714  IntersectionExampleScenario.node[70].veinsmobility  posx  ETV
vector 43715  IntersectionExampleScenario.node[70].veinsmobility  posy  ETV
vector 43716  IntersectionExampleScenario.node[70].veinsmobility  speed  ETV
43592	1758418 6867 13597 18458 198.5 251.25 212 0.973 11.450879080643 637.86683286247 3497.8185244714
43591	1765285 6858 13597 18458 198.5 251.25 212 -5.9861907958984 2.5000019073486 37.15309715271 535.5228620658
43590	1772143 7171 13576 18458 198.25 251.25 213 2.7315752506256 15.375 2289.2025616169 28501.783947716
43589	1779314 7453 13555 18458 198 251.25 214 162.00311279297 487.07269287109 83523.240234375 35044079.574814
43588	1786767 7485 13555 18458 198 251.25 214 238.57507324219 486.85003662109 95741.798828125 43898792.468307
vector 43717  IntersectionExampleScenario.node[70].veinsmobility  acceleration  ETV
vector 43718  IntersectionExampleScenario.node[70].veinsmobility  co2emission  ETV
vector 43721  IntersectionExampleScenario.node[71].veinsmobility  posx  ETV
vector 43722  IntersectionExampleScenario.node[71].veinsmobility  posy  ETV
vector 43723  IntersectionExampleScenario.node[71].veinsmobility  speed  ETV
vector 43724  IntersectionExampleScenario.node[71].veinsmobility  acceleration  ETV
vector 43725  IntersectionExampleScenario.node[71].veinsmobility  co2emission  ETV
43599	1794822 6850 13827 18662 201.25 253.5 210 0.973 11.810082123732 601.77643966576 3099.6610232713
43598	1801672 7022 13827 18662 201.25 253.5 210 -3.2595672607422 2.5 38.680875778198 372.11604177821
43597	1808694 7062 13806 18662 201 253.5 211 2.905285358429 15.875 2290.8874003887 28723.682664555
43596	1815756 7386 13785 18662 200.75 253.5 212 158.8671875 483.14999389648 82516.053894043 34477402.375522
43595	1823142 7414 13785 18662 200.75 253.5 212 486.85000610352 734.62145996094 111441.36149597 59617607.701591
vector 43728  IntersectionExampleScenario.node[72].veinsmobility  posx  ETV
vector 43729  IntersectionExampleScenario.node[72].veinsmobility  posy  ETV
vector 43730  IntersectionExampleScenario.node[72].veinsmobility  speed  ETV
vector 43735  IntersectionExampleScenario.node[73].veinsmobility  posx  ETV
vector 43736  IntersectionExampleScenario.node[73].veinsmobility  posy  ETV
vector 43731  IntersectionExampleScenario.node[72].veinsmobility  acceleration  ETV
vector 43732  IntersectionExampleScenario.node[72].veinsmobility  co2emission  ETV
vector 43737  IntersectionExampleScenario.node[73].veinsmobility  speed  ETV
vector 43738  IntersectionExampleScenario.node[73].veinsmobility  acceleration  ETV
vector 43739  IntersectionExampleScenario.node[73].veinsmobility  co2emission  ETV
43634	1831358 5367 15333 19012 217.75 257 158 0.973 11.648172402475 507.5051522208 2770.0461242575
43633	1836725 5104 15333 19012 217.75 257 158 -4.1008224487305 2.5 38.850629806519 285.73265363105
43632	1841829 5251 15310 19012 217.5 257 159 5.6500000953674 15.64999961853 2175.7625131607 31155.773185709
43631	1847080 5586 15287 19012 217.25 257 160 486.85000610352 785.82187652588 91648.09400177 54228525.326014
43630	1852666 5597 15287 19012 217.25 257 160 238.76281738281 483.14999389648 69300.292724609 30914344.532919
43641	1858263 5390 15648 19439 221.5 261 159 0.973 11.450879080643 484.08833069974 2549.7365065556
43640	1863653 5045 15648 19439 221.5 261 159 -3.2094306945801 2.5 37.15309715271 225.97690870325
43639	1868698 5315 15627 19439 221.25 261 160 5.6500000953674 15.375 2202.4406013489 31158.867246196
43638	1874013 5614 15606 19439 221 261 161 184.17810058594 486.8616027832 64071.489196777 27289169.224474
43637	1879627 5628 15606 19439 221 261 161 237.97393798828 486.85000610352 69896.757843018 31305851.89892
43620	1885255 6496 14759 19511 211.25 261.75 203 0.973 11.90022389248 583.68889783304 3079.4426154711
43619	1891751 6034 14759 19511 211.25 261.75 203 -7.2641463279724 4 39.699392318726 485.24823969018
43618	1897785 6295 14736 19511 211 261.75 204 0 16 2188.7000375986 31472.402892334
43617	1904080 7166 14713 19511 210.75 261.75 205 483.14999389648 734.64868164062 107366.74237061 57289475.374762
43616	1911246 7147 14713 19511 210.75 261.75 205 184.17810058594 486.85000610352 85055.838989258 37241990.012997
vector 43742  IntersectionExampleScenario.node[74].veinsmobility  posx  ETV
vector 43743  IntersectionExampleScenario.node[74].veinsmobility  posy  ETV
vector 43744  IntersectionExampleScenario.node[74].veinsmobility  speed  ETV
vector 43745  IntersectionExampleScenario.node[74].veinsmobility  acceleration  ETV
vector 43746  IntersectionExampleScenario.node[74].veinsmobility  co2emission  ETV
43648	1918794 5696 15736 19837 222.5 265.25 172 0.973 11.450879080643 516.72182576263 2734.215737747
43647	1924490 5499 15736 19837 222.5 265.25 172 -2.5214805603027 2.5000019073486 37.32285118103 261.90578489277
43646	1929989 5772 15713 19837 222.25 265.25 173 5.6500000953674 15.375 2203.5400686264 29606.274659947
43645	1935761 6079 15690 19837 222 265.25 174 483.14999389648 731.93702697754 92524.360946655 50191457.612923
43644	1941840 6054 15690 19837 222 265.25 174 184.17810058594 487.0703125 69679.899993896 29710338.47703
43676	1947894 5255 16333 20087 228.75 267.75 157 0.973 11.778425064358 520.80131483157 3114.4220188851
43675	1953149 5042 16333 20087 228.75 267.75 157 -3.2232513427734 2.5 38.511121749878 265.98126070822
43674	1958191 5298 16305 20087 228.5 267.75 158 5.6500000953674 15.831055641174 2222.4429483414 31943.802423125
43673	1963489 5567 16276 20087 228.25 267.75 159 483.14999389648 483.14999389648 76820.849029541 37115992.739745
43672	1969056 5541 16276 20087 228.25 267.75 159 184.17810058594 734.83699035645 71218.055175781 36085026.110316
vector 43749  IntersectionExampleScenario.node[75].veinsmobility  posx  ETV
vector 43750  IntersectionExampleScenario.node[75].veinsmobility  posy  ETV
vector 43751  IntersectionExampleScenario.node[75].veinsmobility  speed  ETV
vector 43752  IntersectionExampleScenario.node[75].veinsmobility  acceleration  ETV
vector 43753  IntersectionExampleScenario.node[75].veinsmobility  co2emission  ETV
vector 43756  IntersectionExampleScenario.node[76].veinsmobility  posx  ETV
vector 43757  IntersectionExampleScenario.node[76].veinsmobility  posy  ETV
43627	1975152 7282 15333 20942 217.75 276 234 0.973 11.90022389248 616.68599561788 3119.0046750688
43626	1982434 6589 15333 20942 217.75 276 234 -6.9388580322266 4 39.869146347046 483.42859174969
43625	1989023 6951 15310 20942 217.5 276 235 0 16 2206.8655982018 31827.855697043
43624	1995974 8255 15287 20942 217.25 276 236 235.83721923828 486.85000610352 106624.56600952 49265965.148985
43623	2004229 8250 15287 20942 217.25 276 236 483.14999389648 785.82187652588 129209.04387665 72780533.931658
vector 43758  IntersectionExampleScenario.node[76].veinsmobility  speed  ETV
vector 43759  IntersectionExampleScenario.node[76].veinsmobility  acceleration  ETV
vector 43760  IntersectionExampleScenario.node[76].veinsmobility  co2emission  ETV
43669	2012726 6307 16276 21085 228.25 277.5 198 0.973 11.810082123732 563.03861990504 3005.1896225605
43668	2019033 6475 16276 21085 228.25 277.5 198 -2.1482048034668 2.5 39.869146347046 321.33273454787
43667	2025508 6648 16249 21085 228 277.5 199 0.98958998918533 15.875 2178.9973000884 29202.373888289
43666	2032156 6993 16222 21085 227.75 277.5 200 486.85000610352 731.61170959473 105276.71955872 56387499.00142
43665	2039149 6985 16222 21085 227.75 277.5 200 486.81936645508 785.82187652588 112432.01519012 65028536.18371
vector 43763  IntersectionExampleScenario.node[77].veinsmobility  posx  ETV
vector 43764  IntersectionExampleScenario.node[77].veinsmobility  posy  ETV
vector 43765  IntersectionExampleScenario.node[77].veinsmobility  speed  ETV
vector 43766  IntersectionExampleScenario.node[77].veinsmobility  acceleration  ETV
vector 43767  IntersectionExampleScenario.node[77].veinsmobility  co2emission  ETV
vector 43770  IntersectionExampleScenario.node[78].veinsmobility  posx  ETV
vector 43771  IntersectionExampleScenario.node[78].veinsmobility  posy  ETV
vector 43772  IntersectionExampleScenario.node[78].veinsmobility  speed  ETV
vector 43773  IntersectionExampleScenario.node[78].veinsmobility  acceleration  ETV
vector 43774  IntersectionExampleScenario.node[78].veinsmobility  co2emission  ETV
vector 43777  IntersectionExampleScenario.node[79].veinsmobility  posx  ETV
vector 43778  IntersectionExampleScenario.node[79].veinsmobility  posy  ETV
vector 43779  IntersectionExampleScenario.node[79].veinsmobility  speed  ETV
vector 43780  IntersectionExampleScenario.node[79].veinsmobility  acceleration  ETV
vector 43781  IntersectionExampleScenario.node[79].veinsmobility  co2emission  ETV
43662	2047337 7878 16197 22126 227.5 291 255 0.973 11.810082123732 642.02730967016 2981.0030671082
43661	2055215 7208 16197 22126 227.5 291 255 -4.5 2.5 40.038900375366 469.4281235596
43660	2062423 7498 16172 22126 227.25 291 256 0 15.875 2263.302783072 32055.210027905
43659	2069921 8948 16147 22126 227 291 257 162.97808837891 483.14999389648 106996.02859497 46974150.30406
43658	2078869 8991 16147 22126 227 291 257 486.85000610352 731.62013244629 133005.25686646 69873187.55458
43655	2087860 8149 16009 22145 225.5 291.25 264 0.973 11.00486315618 601.32283489499 2589.4632736818
43654	2096009 7420 16009 22145 225.5 291.25 264 -8.6662225723267 4 33.927785873413 457.85555122772
43653	2103429 7769 15986 22145 225.25 291.25 265 0 14.75 2219.7686383724 29479.554203264
43652	2111198 9275 15963 22145 225 291.25 266 177.97814941406 486.85000610352 112586.26425171 49943562.725722
43651	2120473 9287 15963 22145 225 291.25 266 237.86633300781 486.85000610352 120552.61871338 55821764.860408
vector 43784  IntersectionExampleScenario.node[80].veinsmobility  posx  ETV
vector 43785  IntersectionExampleScenario.node[80].veinsmobility  posy  ETV
vector 43786  IntersectionExampleScenario.node[80].veinsmobility  speed  ETV
vector 43787  IntersectionExampleScenario.node[80].veinsmobility  acceleration  ETV
vector 43788  IntersectionExampleScenario.node[80].veinsmobility  co2emission  ETV
43683	2130161 7184 17045 22284 236 293 229 0.973 11.648172402475 597.82323843536 2868.1786183615
43682	2137345 6706 17045 22284 236 293 229 -7.03919506073 4 38.341367721558 489.6043789883
43681	2144051 6893 17022 22284 235.75 293 230 0 15.64999961853 2172.5831859112 30528.025956726
43680	2150944 8076 16999 22284 235.5 293 231 486.75677490234 785.82187652588 127116.5295639 71956661.462338
43679	2159020 8076 16999 22284 235.5 293 231 238.79431152344 483.14999389648 103540.28283691 47436872.246668
vector 43791  IntersectionExampleScenario.node[81].veinsmobility  posx  ETV
vector 43792  IntersectionExampleScenario.node[81].veinsmobility  posy  ETV
vector 43798  IntersectionExampleScenario.node[82].veinsmobility  posx  ETV
vector 43799  IntersectionExampleScenario.node[82].veinsmobility  posy  ETV
43690	2167404 7473 17118 22418 236.75 294.75 233 0.97223939240464 11.648172402475 601.96042076793 2808.1609620505
43689	2174877 8039 17118 22418 236.75 294.75 233 -4.5 2.5000009536743 38.680875778198 368.69922990609
43688	2182916 8130 17093 22418 236.5 294.75 234 0 15.64999961853 2203.9490150791 28954.378792297
43687	2191046 8192 17068 22418 236.25 294.75 235 184.17810058594 486.85000610352 97716.212310791 42576051.210027
43686	2199238 8224 17068 22418 236.25 294.75 235 237.36889648438 486.85000610352 106057.22644043 48952294.235869
vector 43805  IntersectionExampleScenario.node[83].veinsmobility  posx  ETV
vector 43806  IntersectionExampleScenario.node[83].veinsmobility  posy  ETV
vector 43793  IntersectionExampleScenario.node[81].veinsmobility  speed  ETV
vector 43800  IntersectionExampleScenario.node[82].veinsmobility  speed  ETV
vector 43794  IntersectionExampleScenario.node[81].veinsmobility  acceleration  ETV
vector 43795  IntersectionExampleScenario.node[81].veinsmobility  co2emission  ETV
vector 43801  IntersectionExampleScenario.node[82].veinsmobility  acceleration  ETV
vector 43802  IntersectionExampleScenario.node[82].veinsmobility  co2emission  ETV
vector 43807  IntersectionExampleScenario.node[83].veinsmobility  speed  ETV
vector 43808  IntersectionExampleScenario.node[83].veinsmobility  acceleration  ETV
vector 43809  IntersectionExampleScenario.node[83].veinsmobility  co2emission  ETV
43697	2208357 7741 17215 22651 237.75 297.25 239 0.973 11.434663094818 611.00947751038 2830.3689028932
43696	2216098 8118 17215 22651 237.75 297.25 239 -4.5 2.5 38.171613693237 410.99160596039
43695	2224216 8228 17190 22651 237.5 297.25 240 0 15.352356910706 2299.736580871 29790.375881898
43694	2232444 8399 17165 22651 237.25 297.25 241 162.00311279297 486.9084777832 97647.386657715 41873583.459011
43693	2240843 8429 17165 22651 237.25 297.25 241 235.29718017578 486.85000610352 108797.05380249 50243333.696143
vector 43812  IntersectionExampleScenario.node[84].veinsmobility  posx  ETV
vector 43813  IntersectionExampleScenario.node[84].veinsmobility  posy  ETV
vector 43814  IntersectionExampleScenario.node[84].veinsmobility  speed  ETV
vector 43815  IntersectionExampleScenario.node[84].veinsmobility  acceleration  ETV
vector 43816  IntersectionExampleScenario.node[84].veinsmobility  co2emission  ETV
43725	2249673 6262 18593 22918 252.75 300.25 191 0.973 11.200708441096 529.70059066912 2569.7980822446
43724	2255935 6270 18593 22918 252.75 300.25 191 -3.5368614196777 2.5 35.625318527222 269.1561842156
43723	2262205 6525 18570 22918 252.5 300.25 192 4.786449432373 15.02499961853 2210.0818519592 27925.231643739
43722	2268730 6733 18547 22918 252.25 300.25 193 184.17810058594 487.05270385742 77840.196533203 33254785.163089
43721	2275463 6745 18547 22918 252.25 300.25 193 235.60479736328 486.85000610352 85092.500396729 38594749.564215
43732	2282208 6091 18850 23002 255.5 301.25 184 0.973 11.852701252286 563.10744290041 2866.5338397878
43731	2288299 6203 18850 23002 255.5 301.25 184 -4.5 2.5 41.13649559021 296.14351857808
43730	2294502 6331 18825 23002 255.25 301.25 185 4.4519181251526 15.93412399292 2258.0755553246 30207.957590322
43729	2300833 6481 18800 23002 255 301.25 186 169.95465087891 486.87252807617 73983.167236328 31454501.192155
43728	2307314 6489 18800 23002 255 301.25 186 238.45098876953 486.85000610352 82224.394195557 37362503.086426
vector 43819  IntersectionExampleScenario.node[85].veinsmobility  posx  ETV
vector 43820  IntersectionExampleScenario.node[85].veinsmobility  posy  ETV
vector 43821  IntersectionExampleScenario.node[85].veinsmobility  speed  ETV
vector 43822  IntersectionExampleScenario.node[85].veinsmobility  acceleration  ETV
vector 43823  IntersectionExampleScenario.node[85].veinsmobility  co2emission  ETV
vector 43826  IntersectionExampleScenario.node[86].veinsmobility  posx  ETV
vector 43827  IntersectionExampleScenario.node[86].veinsmobility  posy  ETV
vector 43828  IntersectionExampleScenario.node[86].veinsmobility  speed  ETV
vector 43829  IntersectionExampleScenario.node[86].veinsmobility  acceleration  ETV
vector 43830  IntersectionExampleScenario.node[86].veinsmobility  co2emission  ETV
vector 43833  IntersectionExampleScenario.node[87].veinsmobility  posx  ETV
vector 43834  IntersectionExampleScenario.node[87].veinsmobility  posy  ETV
vector 43835  IntersectionExampleScenario.node[87].veinsmobility  speed  ETV
vector 43836  IntersectionExampleScenario.node[87].veinsmobility  acceleration  ETV
vector 43837  IntersectionExampleScenario.node[87].veinsmobility  co2emission  ETV
43704	2315006 7714 17907 23559 245 307.25 250 0.973 11.450879080643 606.77149679093 2834.9836117422
43703	2322720 7035 17907 23559 245 307.25 250 -8.2128305435181 4 36.813589096069 483.09835472119
43702	2329755 7342 17884 23559 244.75 307.25 251 0 15.375 2179.3116796017 30171.351539771
43701	2337097 8814 17860 23559 244.5 307.25 252 483.14999389648 732.66677856445 130320.11895752 68529622.154421
43700	2345911 8789 17860 23559 244.5 307.25 252 184.17810058594 486.85000610352 106893.38458252 47446886.142843
vector 43840  IntersectionExampleScenario.node[88].veinsmobility  posx  ETV
vector 43841  IntersectionExampleScenario.node[88].veinsmobility  posy  ETV
vector 43842  IntersectionExampleScenario.node[88].veinsmobility  speed  ETV
vector 43843  IntersectionExampleScenario.node[88].veinsmobility  acceleration  ETV
vector 43844  IntersectionExampleScenario.node[88].veinsmobility  co2emission  ETV
43711	2355101 8203 18107 23767 247.25 309.25 249 0.973 11.450879080643 629.98924464077 2912.1057569267
43710	2363304 7839 18107 23767 247.25 309.25 249 -4.5 2.5 38.850629806519 431.68983298556
43709	2371143 8283 18084 23767 247 309.25 250 0 15.380663871765 2272.7356702229 31875.156122872
43708	2379426 8777 18061 23767 246.75 309.25 251 483.14999389648 733.25410461426 129617.49882507 68048275.987422
43707	2388203 8753 18061 23767 246.75 309.25 251 167.29217529297 487.01248168945 104617.4291687 45942788.542784
vector 43847  IntersectionExampleScenario.node[89].veinsmobility  posx  ETV
vector 43848  IntersectionExampleScenario.node[89].veinsmobility  posy  ETV
vector 43849  IntersectionExampleScenario.node[89].veinsmobility  speed  ETV
vector 43850  IntersectionExampleScenario.node[89].veinsmobility  acceleration  ETV
vector 43851  IntersectionExampleScenario.node[89].veinsmobility  co2emission  ETV
43718	2397357 7808 18481 24020 251.5 311.5 241 0.973 11.810082123732 624.58600090125 3136.8194510347
43717	2405165 8010 18481 24020 251.5 311.5 241 -3.7373445034027 2.5 39.869146347046 379.04009754578
43716	2413175 8138 18458 24020 251.25 311.5 242 0 15.875 2230.67308506 30052.153092326
43715	2421313 8493 18435 24020 251 311.5 243 238.28662109375 483.14999389648 109491.48254395 50362920.798477
43714	2429806 8468 18435 24020 251 311.5 243 171.37420654297 483.27029418945 100148.86010742 43396868.347543
43739	2438274 7503 18904 24252 256 313.5 231 0.973 11.648172402475 590.90850278614 2933.2671267731
43738	2445777 7741 18904 24252 256 313.5 231 -4.4022064208984 2.5000019073486 38.341367721558 366.47138430728
43737	2453518 7916 18877 24252 255.75 313.5 232 0 15.64999961853 2255.5197880454 30089.381968504
43736	2461434 8155 18850 24252 255.5 313.5 233 483.14999389648 483.14999389648 112573.94857788 54390102.568306
43735	2469589 8118 18850 24252 255.5 313.5 233 175.33239746094 734.15325927734 103563.90202332 50403526.691624
43746	2477707 6458 19837 24629 265.25 316.75 207 0.973 11.648172402475 568.69710032675 3020.0212024728
43745	2484165 6651 19837 24629 265.25 316.75 207 -4.1202812194824 2.5 38.341367721558 362.63210092363
43744	2490816 6951 19812 24629 265 316.75 208 1.0779860019684 15.64999961853 2186.0741122961 28218.639480714
43743	2497767 7306 19787 24629 264.75 316.75 209 236.58746337891 483.14999389648 92770.613311768 42200930.928714
43742	2505073 7275 19787 24629 264.75 316.75 209 184.17810058594 483.14999389648 84766.688262939 36188715.857525
vector 43854  IntersectionExampleScenario.node[90].veinsmobility  posx  ETV
vector 43855  IntersectionExampleScenario.node[90].veinsmobility  posy  ETV
vector 43856  IntersectionExampleScenario.node[90].veinsmobility  speed  ETV
vector 43857  IntersectionExampleScenario.node[90].veinsmobility  acceleration  ETV
vector 43858  IntersectionExampleScenario.node[90].veinsmobility  co2emission  ETV
43753	2512749 6429 20316 25060 270 320.5 203 0.973 12.553400930962 609.07725416458 3494.2161659714
43752	2519178 6062 20316 25060 270 320.5 203 -8.2047395706177 4 42.585195541382 529.42212055748
43751	2525240 6194 20289 25060 269.75 320.5 204 0 16.89999961853 2184.3572819233 32491.866501956
43750	2531434 7099 20262 25060 269.5 320.5 205 486.85000610352 734.72305297852 107588.01560974 57448091.777794
43749	2538533 7159 20262 25060 269.5 320.5 205 486.63604736328 785.82187652588 113681.89336395 64937491.981677
vector 43861  IntersectionExampleScenario.node[91].veinsmobility  posx  ETV
vector 43862  IntersectionExampleScenario.node[91].veinsmobility  posy  ETV
vector 43863  IntersectionExampleScenario.node[91].veinsmobility  speed  ETV
vector 43868  IntersectionExampleScenario.node[92].veinsmobility  posx  ETV
vector 43869  IntersectionExampleScenario.node[92].veinsmobility  posy  ETV
vector 43864  IntersectionExampleScenario.node[91].veinsmobility  acceleration  ETV
vector 43865  IntersectionExampleScenario.node[91].veinsmobility  co2emission  ETV
vector 43870  IntersectionExampleScenario.node[92].veinsmobility  speed  ETV
vector 43871  IntersectionExampleScenario.node[92].veinsmobility  acceleration  ETV
vector 43872  IntersectionExampleScenario.node[92].veinsmobility  co2emission  ETV
vector 43875  IntersectionExampleScenario.node[93].veinsmobility  posx  ETV
vector 43876  IntersectionExampleScenario.node[93].veinsmobility  posy  ETV
vector 43877  IntersectionExampleScenario.node[93].veinsmobility  speed  ETV
vector 43878  IntersectionExampleScenario.node[93].veinsmobility  acceleration  ETV
vector 43879  IntersectionExampleScenario.node[93].veinsmobility  co2emission  ETV
vector 43882  IntersectionExampleScenario.node[94].veinsmobility  posx  ETV
vector 43883  IntersectionExampleScenario.node[94].veinsmobility  posy  ETV
vector 43884  IntersectionExampleScenario.node[94].veinsmobility  speed  ETV
vector 43885  IntersectionExampleScenario.node[94].veinsmobility  acceleration  ETV
vector 43886  IntersectionExampleScenario.node[94].veinsmobility  co2emission  ETV
vector 43889  IntersectionExampleScenario.node[95].veinsmobility  posx  ETV
vector 43890  IntersectionExampleScenario.node[95].veinsmobility  posy  ETV
vector 43891  IntersectionExampleScenario.node[95].veinsmobility  speed  ETV
vector 43892  IntersectionExampleScenario.node[95].veinsmobility  acceleration  ETV
vector 43893  IntersectionExampleScenario.node[95].veinsmobility  co2emission  ETV
vector 43896  IntersectionExampleScenario.node[96].veinsmobility  posx  ETV
vector 43897  IntersectionExampleScenario.node[96].veinsmobility  posy  ETV
vector 43903  IntersectionExampleScenario.node[97].veinsmobility  posx  ETV
vector 43904  IntersectionExampleScenario.node[97].veinsmobility  posy  ETV
vector 43898  IntersectionExampleScenario.node[96].veinsmobility  speed  ETV
[...]
vector 46924  IntersectionExampleScenario.node[528].veinsmobility  co2emission  ETV
46819	18162111 6614 151438 154868 1699.75 1747.25 191 0.973 11.648172402475 560.50596353784 2906.6005210903
46818	18168725 6064 151438 154868 1699.75 1747.25 191 -7.0929417610168 4 38.341367721558 476.74127862336
46817	18174789 6448 151421 154868 1699.5 1747.25 192 0 15.64999961853 2177.7517205477 30631.668074955
46816	18181237 7077 151404 154868 1699.25 1747.25 193 236.95220947266 483.14999389648 85066.201141357 38485113.740285
46815	18188314 7116 151404 154868 1699.25 1747.25 193 184.17810058594 483.36395263672 79033.734436035 34248129.463412
46840	18195430 5736 152203 155203 1711 1751.25 162 0.973 11.495464658215 530.49957818809 3152.5674338266
46839	18201166 5512 152203 155203 1711 1751.25 162 -3.3527069091797 2.5 36.98334312439 299.97372876614
46838	18206678 5741 152182 155203 1710.75 1751.25 163 5.6500000953674 15.437225341797 2203.0393733978 30631.055510485
46837	18212419 6057 152163 155203 1710.5 1751.25 164 483.14999389648 732.1212310791 87753.619140625 47926777.595803
46836	18218476 6033 152163 155203 1710.5 1751.25 164 184.17810058594 486.85000610352 65301.722808838 27797511.726135
vector 46927  IntersectionExampleScenario.node[529].veinsmobility  posx  ETV
vector 46928  IntersectionExampleScenario.node[529].veinsmobility  posy  ETV
vector 46929  IntersectionExampleScenario.node[529].veinsmobility  speed  ETV
vector 46930  IntersectionExampleScenario.node[529].veinsmobility  acceleration  ETV
vector 46931  IntersectionExampleScenario.node[529].veinsmobility  co2emission  ETV
vector 46934  IntersectionExampleScenario.node[530].veinsmobility  posx  ETV
vector 46935  IntersectionExampleScenario.node[530].veinsmobility  posy  ETV
vector 46936  IntersectionExampleScenario.node[530].veinsmobility  speed  ETV
vector 46937  IntersectionExampleScenario.node[530].veinsmobility  acceleration  ETV
vector 46938  IntersectionExampleScenario.node[530].veinsmobility  co2emission  ETV
46868	18225321 5679 152889 155872 1720.5 1759.75 158 0.973 11.810082123732 511.48895823782 2867.6989670407
46867	18231000 5401 152889 155872 1720.5 1759.75 158 -3.4318199157715 2.5 39.190130233765 290.92316573323
46866	18236401 5550 152870 155872 1720.25 1759.75 159 5.6500000953674 15.875 2183.7200775146 31416.41107883
46865	18241951 5917 152850 155872 1720 1759.75 160 236.88989257812 483.14999389648 69225.858642578 30864779.562008
46864	18247868 5895 152850 155872 1720 1759.75 160 184.17810058594 483.18939208984 63590.66305542 27006070.961234
46854	18253763 5899 152736 155914 1718.5 1760.25 168 0.973 12.553400930962 578.90041433404 3512.9045783491
46853	18259662 5654 152736 155914 1718.5 1760.25 168 -7.4028387069702 4 42.754949569702 528.39185435473
46852	18265316 5844 152719 155914 1718.25 1760.25 169 0 16.89999961853 2209.8865306377 33260.503309023
46851	18271160 6289 152702 155914 1718 1760.25 170 486.85000610352 486.85000610352 82764.501037598 40293897.835309
46850	18277449 6255 152702 155914 1718 1760.25 170 237.52502441406 785.82187652588 88452.802772522 49957281.694022
vector 46941  IntersectionExampleScenario.node[531].veinsmobility  posx  ETV
vector 46942  IntersectionExampleScenario.node[531].veinsmobility  posy  ETV
vector 46943  IntersectionExampleScenario.node[531].veinsmobility  speed  ETV
vector 46944  IntersectionExampleScenario.node[531].veinsmobility  acceleration  ETV
vector 46945  IntersectionExampleScenario.node[531].veinsmobility  co2emission  ETV
vector 46948  IntersectionExampleScenario.node[532].veinsmobility  posx  ETV
vector 46949  IntersectionExampleScenario.node[532].veinsmobility  posy  ETV
vector 46950  IntersectionExampleScenario.node[532].veinsmobility  speed  ETV
vector 46955  IntersectionExampleScenario.node[533].veinsmobility  posx  ETV
vector 46956  IntersectionExampleScenario.node[533].veinsmobility  posy  ETV
vector 46951  IntersectionExampleScenario.node[532].veinsmobility  acceleration  ETV
vector 46952  IntersectionExampleScenario.node[532].veinsmobility  co2emission  ETV
vector 46957  IntersectionExampleScenario.node[533].veinsmobility  speed  ETV
vector 46958  IntersectionExampleScenario.node[533].veinsmobility  acceleration  ETV
vector 46959  IntersectionExampleScenario.node[533].veinsmobility  co2emission  ETV
vector 46962  IntersectionExampleScenario.node[534].veinsmobility  posx  ETV
vector 46963  IntersectionExampleScenario.node[534].veinsmobility  posy  ETV
46889	18285078 5856 153458 156552 1727.75 1768 162 0.973 11.200708441096 476.64844934116 2384.7372096028
46888	18290934 5621 153458 156552 1727.75 1768 162 -3.1917495727539 2.5 35.964826583862 214.61530441666
46887	18296555 5755 153437 156552 1727.5 1768 163 5.6500000953674 15.02499961853 2212.4552736282 30792.00425014
46886	18302310 6059 153416 156552 1727.25 1768 164 235.32421875 486.85000610352 71007.729858398 31750557.478544
46885	18308369 6063 153416 156552 1727.25 1768 164 483.11938476562 785.82187652588 93711.729820251 55361935.30299
vector 46964  IntersectionExampleScenario.node[534].veinsmobility  speed  ETV
vector 46965  IntersectionExampleScenario.node[534].veinsmobility  acceleration  ETV
vector 46966  IntersectionExampleScenario.node[534].veinsmobility  co2emission  ETV
vector 46969  IntersectionExampleScenario.node[535].veinsmobility  posx  ETV
vector 46970  IntersectionExampleScenario.node[535].veinsmobility  posy  ETV
vector 46971  IntersectionExampleScenario.node[535].veinsmobility  speed  ETV
vector 46976  IntersectionExampleScenario.node[536].veinsmobility  posx  ETV
vector 46977  IntersectionExampleScenario.node[536].veinsmobility  posy  ETV
vector 46972  IntersectionExampleScenario.node[535].veinsmobility  acceleration  ETV
vector 46973  IntersectionExampleScenario.node[535].veinsmobility  co2emission  ETV
vector 46978  IntersectionExampleScenario.node[536].veinsmobility  speed  ETV
vector 46979  IntersectionExampleScenario.node[536].veinsmobility  acceleration  ETV
vector 46980  IntersectionExampleScenario.node[536].veinsmobility  co2emission  ETV
46847	18315494 8468 152224 157268 1711.25 1775.75 259 0.973 11.36141391502 609.52984913472 2821.2653190342
46846	18323962 8065 152224 157268 1711.25 1775.75 259 -7.0897550582886 4 35.964826583862 468.71473336871
46845	18332027 8064 152203 157268 1711 1775.75 260 0 15.25 2177.1584625244 29697.081317394
46844	18340091 9623 152182 157268 1710.75 1775.75 261 184.17810058594 483.36395263672 110815.94024658 49154700.179362
46843	18349714 9590 152182 157268 1710.75 1775.75 261 486.85000610352 733.14964294434 135558.51751709 71522494.045158
46861	18359304 8114 152774 157492 1719 1778.25 238 0.973 11.36141391502 582.81751477832 2748.0232888607
46860	18367418 8592 152774 157492 1719 1778.25 238 -3.8410596847534 2.5 37.15309715271 313.76667091561
46859	18376010 8572 152755 157492 1718.75 1778.25 239 0 15.25 2188.979875667 28416.905045391
46858	18384582 8853 152736 157492 1718.5 1778.25 240 184.17810058594 483.22708129883 99954.09677124 43588620.095586
46857	18393435 8868 152736 157492 1718.5 1778.25 240 486.85000610352 734.33946228027 125266.98931885 66472491.173228
46875	18402303 8050 153036 157720 1722.5 1781 235 0.973 11.36141391502 584.80607368859 2762.2365699718
46874	18410353 8420 153036 157720 1722.5 1781 235 -4.2923316955566 2.5000001192093 36.813589096069 379.72359475528
46873	18418773 8402 153017 157720 1722.25 1781 236 0 15.25 2222.2421368808 28247.297387087
46872	18427175 8737 152998 157720 1722 1781 237 174.53436279297 483.19100952148 96935.808319092 41711679.999531
46871	18435912 8759 152998 157720 1722 1781 237 486.85000610352 733.2546081543 123777.41067505 65722658.965183
46917	18444671 5633 154594 157891 1744 1783.25 158 0.973 11.648172402475 537.24670647382 3276.5927535278
46916	18450304 5305 154594 157891 1744 1783.25 158 -3.2002182006836 2.5 38.341367721558 302.65652457034
46915	18455609 5593 154573 157891 1743.75 1783.25 159 5.6500000953674 15.64999961853 2202.1739587784 31399.868020423
46914	18461202 5890 154552 157891 1743.5 1783.25 160 184.17810058594 486.88034057617 63637.010314941 27081831.034362
46913	18467092 5918 154552 157891 1743.5 1783.25 160 238.40545654297 486.85000610352 69591.637481689 31212218.09628
46924	18473010 5990 154742 158191 1745.75 1787.5 168 0.973 11.36141391502 527.3272742895 2850.7038837296
46923	18479000 5614 154742 158191 1745.75 1787.5 168 -4.5 2.5 37.32285118103 295.62414514303
46922	18484614 5935 154721 158191 1745.5 1787.5 169 5.6500000953674 15.25 2266.5162773132 31658.876007772
46921	18490549 6273 154699 158191 1745.25 1787.5 170 164.94219970703 483.14999389648 66383.046691895 27988988.439473
46920	18496822 6284 154699 158191 1745.25 1787.5 170 486.85000610352 734.63121032715 91183.640869141 49878179.235452
vector 46983  IntersectionExampleScenario.node[537].veinsmobility  posx  ETV
vector 46984  IntersectionExampleScenario.node[537].veinsmobility  posy  ETV
vector 46985  IntersectionExampleScenario.node[537].veinsmobility  speed  ETV
vector 46986  IntersectionExampleScenario.node[537].veinsmobility  acceleration  ETV
vector 46987  IntersectionExampleScenario.node[537].veinsmobility  co2emission  ETV
vector 46990  IntersectionExampleScenario.node[538].veinsmobility  posx  ETV
vector 46991  IntersectionExampleScenario.node[538].veinsmobility  posy  ETV
vector 46992  IntersectionExampleScenario.node[538].veinsmobility  speed  ETV
vector 46993  IntersectionExampleScenario.node[538].veinsmobility  acceleration  ETV
vector 46994  IntersectionExampleScenario.node[538].veinsmobility  co2emission  ETV
46882	18503918 8762 153116 158493 1723.5 1791.5 273 0.973 11.90022389248 658.48786462703 3199.2573904782
46881	18512680 8149 153116 158493 1723.5 1791.5 273 -7.5749826431274 4 40.038900375366 490.51701624807
46880	18520829 8340 153095 158493 1723.25 1791.5 274 0 16 2228.2025201321 32200.523153489
46879	18529169 10172 153074 158493 1723 1791.5 275 483.14999389648 731.74800109863 140959.61592102 73355610.580865
46878	18539341 10146 153074 158493 1723 1791.5 275 171.40313720703 486.85000610352 117035.43945312 52164750.460785
46903	18549487 7145 154363 158612 1741 1793.25 210 0.973 11.648172402475 569.48713952953 2921.4145227148
46902	18556632 7379 154363 158612 1741 1793.25 210 -3.9498529434204 2.5000004768372 38.511121749878 340.19199091692
46901	18564011 7652 154344 158612 1740.75 1793.25 211 0 15.64999961853 2216.205687657 29702.12164986
46900	18571663 7844 154325 158612 1740.5 1793.25 212 483.14999389648 483.14999389648 102427.79870605 49487990.31966
46899	18579507 7807 154325 158612 1740.5 1793.25 212 184.17810058594 733.32627868652 95359.26335144 47043213.378285
vector 46997  IntersectionExampleScenario.node[539].veinsmobility  posx  ETV
vector 46998  IntersectionExampleScenario.node[539].veinsmobility  posy  ETV
vector 46999  IntersectionExampleScenario.node[539].veinsmobility  speed  ETV
vector 47000  IntersectionExampleScenario.node[539].veinsmobility  acceleration  ETV
vector 47001  IntersectionExampleScenario.node[539].veinsmobility  co2emission  ETV
46931	18587720 5559 155663 158829 1757.25 1796.5 158 0.973 12.26218747632 593.69241317643 4051.9542347228
46930	18593279 5350 155663 158829 1757.25 1796.5 158 -3.7982044219971 2.5 41.396924972534 419.33527876989
46929	18598629 5548 155642 158829 1757 1796.5 159 5.6500000953674 16.5 2177.1860232353 31406.109744651
46928	18604177 5915 155621 158829 1756.75 1796.5 160 238.49810791016 483.14999389648 69593.713104248 31151229.835227
46927	18610092 5887 155621 158829 1756.75 1796.5 160 184.17810058594 483.14999389648 63501.197113037 26902512.651825
vector 47004  IntersectionExampleScenario.node[540].veinsmobility  posx  ETV
vector 47005  IntersectionExampleScenario.node[540].veinsmobility  posy  ETV
vector 47006  IntersectionExampleScenario.node[540].veinsmobility  speed  ETV
vector 47007  IntersectionExampleScenario.node[540].veinsmobility  acceleration  ETV
vector 47008  IntersectionExampleScenario.node[540].veinsmobility  co2emission  ETV
vector 47011  IntersectionExampleScenario.node[541].veinsmobility  posx  ETV
vector 47012  IntersectionExampleScenario.node[541].veinsmobility  posy  ETV
vector 47013  IntersectionExampleScenario.node[541].veinsmobility  speed  ETV
vector 47014  IntersectionExampleScenario.node[541].veinsmobility  acceleration  ETV
vector 47015  IntersectionExampleScenario.node[541].veinsmobility  co2emission  ETV
46896	18616791 7773 154256 159049 1739.5 1800 243 0.97223939240464 11.648172402475 584.74638779934 2888.6185889488
46895	18624564 7213 154256 159049 1739.5 1800 243 -7.1630640029907 4 38.680906295776 471.71258299231
46894	18631777 7325 154239 159049 1739.25 1800 244 0 15.64999961853 1821.4801695347 25403.817263562
46893	18639102 9060 154222 159049 1739 1800 245 331.96929931641 486.85000610352 115992.07897949 55207550.214779
46892	18648162 9053 154222 159049 1739 1800 245 483.14999389648 785.82187652588 134193.75711823 75528694.612449
46910	18657215 7656 154594 159049 1744 1800 225 0.973 11.810082123732 564.22244450257 2940.4695450279
46909	18664871 7766 154594 159049 1744 1800 225 -4.5 2.5 39.702238082886 415.46748853296
46908	18672637 7675 154573 159049 1743.75 1800 226 0 15.875 1719.6750029009 23341.74310528
46907	18680312 8378 154552 159049 1743.5 1800 227 486.85000610352 617.06678771973 112858.83335876 56285868.791871
46906	18688690 8384 154552 159049 1743.5 1800 227 486.85000610352 785.82187652588 126082.21414948 71900041.229845
46938	18697074 5396 155830 159049 1759.25 1800 164 0.973 12.099024792222 490.7359621613 2967.2422497446
46937	18702470 5627 155830 159049 1759.25 1800 164 -3.7773349285126 2.5 40.888349533081 357.85090374456
46936	18708097 5749 155809 159049 1759 1800 165 0 16.27499961853 1555.6688742042 19408.777848178
46935	18713846 6140 155788 159049 1758.75 1800 166 486.85000610352 575.64364624023 81975.551361084 40539169.066481
46934	18719986 6120 155788 159049 1758.75 1800 166 486.85000610352 785.82187652588 96191.62311554 57273021.231212
46945	18726106 5505 156079 159049 1762.25 1800 152 0.97223939240464 11.648172402475 471.01731983828 2505.0833967185
46944	18731611 5302 156079 159049 1762.25 1800 152 -3.8404541015625 2.5 38.680875778198 202.58039708037
46943	18736913 5431 156058 159049 1762 1800 153 5.6500000953674 15.64999961853 2195.4522027969 32157.705506571
46942	18742344 5697 156037 159049 1761.75 1800 154 483.14999389648 483.14999389648 74405.099060059 35948823.156735
46941	18748041 5669 156037 159049 1761.75 1800 154 184.17810058594 727.85646057129 68667.15536499 34627456.493711
46952	18753710 4524 156421 159049 1766.5 1800 135 0.973 11.648172402475 432.82476552259 2680.403062707
46951	18758234 4428 156421 159049 1766.5 1800 135 -4.2752742767334 2.5 38.342901229858 313.5258252563
46950	18762662 4712 156400 159049 1766.25 1800 136 4.8813343048096 15.64999961853 1395.8285651207 16084.05423755
46949	18767374 5067 156379 159049 1766 1800 137 486.85000610352 536.12979125977 67150.989501953 32926689.258566
46948	18772441 5058 156379 159049 1766 1800 137 486.80770874023 785.82187652588 82215.862876892 50636851.755898
46959	18777499 4329 156467 159049 1767 1800 133 0.973 10.756497587458 287.69213973949 1219.7905305775
46958	18781828 4083 156467 159049 1767 1800 133 -9.1816129684448 2.5 -22.60000038147 316.4451822803
46957	18785911 4387 156444 159049 1766.75 1800 134 0 14.39999961853 1148.010204792 14918.53577826
46956	18790298 4987 156421 159049 1766.5 1800 135 498.39999389648 785.82187652588 80890.977561951 49847049.823792
46955	18795285 4994 156421 159049 1766.5 1800 135 483.14999389648 483.14999389648 65225.249176025 31513578.741293
46966	18800279 4352 156598 159049 1768.5 1800 127 0.973 11.648172402475 382.54844005423 2034.8027549192
46965	18804631 4305 156598 159049 1768.5 1800 127 -4.5 2.5 23.39999961853 297.53197291386
46964	18808936 4491 156575 159049 1768.25 1800 128 5.0975241661072 16.066009521484 1365.7343025208 16702.098412829
46963	18813427 4771 156552 159049 1768 1800 129 486.85000610352 511.94708251953 62967.105773926 30737758.464967
46962	18818198 4760 156552 159049 1768 1800 129 486.85000610352 803.92188262939 79213.318481445 50024406.205611
46973	18822958 3585 157018 159049 1773.25 1800 108 0.973 10.756497587458 274.85188296444 1280.3866734917
46972	18826543 4013 157018 159049 1773.25 1800 108 -3.9210138320923 2.5 -21.556068062782 221.12399965704
46971	18830556 4009 156995 159049 1773 1800 109 0 15.636583328247 1118.8076658472 15190.125341888
46970	18834565 4059 156972 159049 1772.75 1800 110 505.79202270508 785.82187652588 67984.52256012 43073751.446151
46969	18838624 4069 156972 159049 1772.75 1800 110 483.14999389648 483.14999389648 53146.499328613 25677730.826239
46980	18842693 3534 157068 159049 1773.75 1800 106 0.973 11.648172402475 285.93616075703 1477.9110120674
46979	18846227 3341 157068 159049 1773.75 1800 106 -6.9388580322266 2.5 -22.60000038147 320.5938017566
46978	18849568 3661 157043 159049 1773.5 1800 107 0 15.64999961853 1147.376349926 16386.767929833
46977	18853229 3996 157018 159049 1773.25 1800 108 483.14999389648 483.14999389648 52180.19934082 25210862.993035
46976	18857225 3974 157018 159049 1773.25 1800 108 184.17810058594 471.60000610352 38270.271453857 14668639.410714
46987	18861199 1749 158246 159049 1788.25 1800 48 0.973 12.553400930962 220.83570995476 1625.5101221105
46986	18862948 1652 158246 159049 1788.25 1800 48 -0.5 2.5 42.92506980896 113.10450047901
46985	18864600 1798 158227 159049 1788 1800 49 5.6500000953674 16.89999961853 707.23522949219 10740.284531226
46984	18866398 1831 158208 159049 1787.75 1800 50 184.17810058594 355.61260986328 12948.332946777 3499367.1896007
46983	18868229 1849 158208 159049 1787.75 1800 50 486.85000610352 486.85000610352 24342.500305176 11851146.42215
46994	18870078 1438 158420 159049 1790.5 1800 39 1.7729555826186 11.648172402475 183.25249604102 1293.550483709
46993	18871516 1344 158420 159049 1790.5 1800 39 -0.11759185791016 2.5 39.53026008606 100.03159718572
46992	18872860 1463 158400 159049 1790.25 1800 40 5.6500000953674 15.64999961853 538.6476764679 7647.400268551
46991	18874323 1515 158379 159049 1790 1800 41 486.85000610352 486.85000610352 19960.850250244 9717940.0661627
46990	18875838 1515 158379 159049 1790 1800 41 656.36505126953 785.82187652588 29936.281318665 21926767.206858
47001	18877353 780 158711 159049 1794.75 1800 22 0.973 11.200708441096 131.60602094029 1065.4009201404
47000	18878133 644 158711 159049 1794.75 1800 22 -0.5 2.5 35.590898513794 94.406471195503
46999	18878777 840 158694 159049 1794.5 1800 23 5.6500000953674 15.02499961853 268.18553447723 3351.9987155446
46998	18879617 888 158677 159049 1794.25 1800 24 483.14999389648 483.14999389648 11595.599853516 5602413.9984521
46997	18880505 869 158677 159049 1794.25 1800 24 184.17810058594 246.357421875 5026.1873779297 1061898.5646419
47008	18881374 256 158950 159049 1798.5 1800 7 5.2162187258585 7.726741696285 45.269477411621 297.66192607747
47007	18881630 186 158950 159049 1798.5 1800 7 2.4999980926514 2.5 17.499998092651 43.74999046326
47006	18881816 295 158935 159049 1798.25 1800 8 5.6500000953674 10.02499961853 62.699998855591 507.81747729302
47005	18882111 331 158919 159049 1798 1800 9 773.20001220703 785.82187652588 7026.2844314575 5485575.2121343
47004	18882442 331 158919 159049 1798 1800 9 483.14999389648 483.14999389648 4348.3499450684 2100905.2494196
47015	18882773 110 159014 159049 1799.5 1800 3 5.2162187258585 6.0461819274774 16.892854010144 95.467258699338
47014	18882883 74 159014 159049 1799.5 1800 3 2.5 2.5 7.5 18.75
47013	18882957 148 158997 159049 1799.25 1800 4 5.6500000953674 7.5250000953674 26.35000038147 175.53375502586
47012	18883105 183 158980 159049 1799 1800 5 483.14999389648 483.14999389648 2415.7499694824 1167169.5830109
47011	18883288 183 158980 159049 1799 1800 5 184.17810058594 188.65002441406 929.52185058594 172817.03356194
43220	18883471 635 0 159048 0 1800 31 0 21 465 7521
43221	18884106 648 0 159048 0 1800 31 0 172 2677 314589
