version 2
run nodebug-11-20200605-21:25:08-20324
attr configname nodebug
attr datetime 20200605-21:25:08
attr experiment nodebug
attr inifile omnetpp.ini
attr iterationvars ""
attr iterationvars2 $repetition=11
attr measurement ""
attr network "\"org.car2x.veins.modules.application.ExtTraCIScenarioManagerLaunchd.IntersectionExampleScenario\""
attr processid 20324
attr repetition 11
attr replication #11
attr resultdir results
attr runnumber 11
attr seedset 11
param **.coreDebug false
param **.debug false
param *.**.nic.mac1609_4.bitrate 18Mbps
param *.**.nic.mac1609_4.txPower 20mW
param *.**.nic.mac1609_4.useServiceChannel false
param *.**.nic.phy80211p.analogueModels "xmldoc(\"config.xml\")"
param *.**.nic.phy80211p.decider "xmldoc(\"config.xml\")"
param *.**.nic.phy80211p.sensitivity -89dBm
param *.**.nic.phy80211p.thermalNoise -110dBm
param *.**.nic.phy80211p.usePropagationDelay true
param *.**.nic.phy80211p.useThermalNoise true
param *.annotations.draw false
param *.connectionManager.alpha 2.0
param *.connectionManager.carrierFrequency "5.890e9 Hz"
param *.connectionManager.pMax 20mW
param *.connectionManager.sat -89dBm
param *.connectionManager.sendDirect true
param *.manager.autoShutdown true
param *.manager.host "\"localhost\""
param *.manager.launchConfig "xmldoc(\"paramics.launchd.xml\")"
param *.manager.margin 25
param *.manager.moduleDisplayString "\"\""
param *.manager.moduleName "\"node\""
param *.manager.moduleType "\"org.car2x.veins.nodes.Car\""
param *.manager.port 9999
param *.manager.updateInterval 250ms
param *.node[*0].veinsmobility.accidentCount 0
param *.node[*0].veinsmobility.accidentDuration 30s
param *.node[*0].veinsmobility.accidentStart 75s
param *.node[*].appl.LiderSelectZoneRadio 55.0
param *.node[*].appl.ShareDataZoneRadio 110.0
param *.node[*].appl.TiempoSemaforo 30.0
param *.node[*].appl.beaconInterval 1s
param *.node[*].appl.beaconPriority 3
param *.node[*].appl.dataOnSch false
param *.node[*].appl.dataPriority 2
param *.node[*].appl.debug false
param *.node[*].appl.headerLength "256 bit"
param *.node[*].appl.maxOffset 0.005s
param *.node[*].appl.sendBeacons false
param *.node[*].appl.sendData true
param *.node[*].applType "\"Dummy\""
param *.node[*].mobilityType "\"TraCIMobility\""
param *.node[*].mobilityType.debug true
param *.node[*].veinsmobility.x 0
param *.node[*].veinsmobility.y 0
param *.node[*].veinsmobility.z 1.895
param *.node[*].veinsmobilityType "\"org.car2x.veins.modules.mobility.traci.TraCIMobility\""
param *.node[*].veinsmobilityType.debug true
param *.playgroundSizeX 8500m
param *.playgroundSizeY 8500m
param *.playgroundSizeZ 50m
param *.world.use2D false
param *.world.useTorus false

scalar IntersectionExampleScenario.node[1].appl 	VehicleRemoved 	0
scalar IntersectionExampleScenario.node[1].appl 	ArrivedAtDest 	1
scalar IntersectionExampleScenario.node[1].appl 	IntersectionEnterTime 	10.5
scalar IntersectionExampleScenario.node[1].appl 	IntersectionExitTime 	34.560921450611
scalar IntersectionExampleScenario.node[1].appl 	NumberOfCollisions 	0
scalar IntersectionExampleScenario.node[1].nic.phy80211p 	busyTime 	0
scalar IntersectionExampleScenario.node[1].nic.mac1609_4 	ReceivedUnicastPackets 	0
scalar IntersectionExampleScenario.node[1].nic.mac1609_4 	ReceivedBroadcasts 	0
scalar IntersectionExampleScenario.node[1].nic.mac1609_4 	SentPackets 	0
scalar IntersectionExampleScenario.node[1].nic.mac1609_4 	SNIRLostPackets 	0
scalar IntersectionExampleScenario.node[1].nic.mac1609_4 	RXTXLostPackets 	0
scalar IntersectionExampleScenario.node[1].nic.mac1609_4 	TotalLostPackets 	0
scalar IntersectionExampleScenario.node[1].nic.mac1609_4 	DroppedPacketsInMac 	0
scalar IntersectionExampleScenario.node[1].nic.mac1609_4 	TooLittleTime 	0
scalar IntersectionExampleScenario.node[1].nic.mac1609_4 	TimesIntoBackoff 	0
scalar IntersectionExampleScenario.node[1].nic.mac1609_4 	SlotsBackoff 	0
scalar IntersectionExampleScenario.node[1].nic.mac1609_4 	NumInternalContention 	0
scalar IntersectionExampleScenario.node[1].nic.mac1609_4 	totalBusyTime 	0
scalar IntersectionExampleScenario.node[1].veinsmobility 	startTime 	10.5
scalar IntersectionExampleScenario.node[1].veinsmobility 	totalTime 	40.25
scalar IntersectionExampleScenario.node[1].veinsmobility 	stopTime 	51
scalar IntersectionExampleScenario.node[1].veinsmobility 	minSpeed 	5.6500000953674
scalar IntersectionExampleScenario.node[1].veinsmobility 	maxSpeed 	15.5
scalar IntersectionExampleScenario.node[1].veinsmobility 	totalDistance 	554.46305084229
scalar IntersectionExampleScenario.node[1].veinsmobility 	totalCO2Emission 	124.59529636926
scalar IntersectionExampleScenario.node[4].appl 	VehicleRemoved 	0
scalar IntersectionExampleScenario.node[4].appl 	ArrivedAtDest 	1
scalar IntersectionExampleScenario.node[4].appl 	IntersectionEnterTime 	16.75
scalar IntersectionExampleScenario.node[4].appl 	IntersectionExitTime 	40.769739038835
scalar IntersectionExampleScenario.node[4].appl 	NumberOfCollisions 	0
scalar IntersectionExampleScenario.node[4].nic.phy80211p 	busyTime 	0
scalar IntersectionExampleScenario.node[4].nic.mac1609_4 	ReceivedUnicastPackets 	0
scalar IntersectionExampleScenario.node[4].nic.mac1609_4 	ReceivedBroadcasts 	0
scalar IntersectionExampleScenario.node[4].nic.mac1609_4 	SentPackets 	0
scalar IntersectionExampleScenario.node[4].nic.mac1609_4 	SNIRLostPackets 	0
scalar IntersectionExampleScenario.node[4].nic.mac1609_4 	RXTXLostPackets 	0
scalar IntersectionExampleScenario.node[4].nic.mac1609_4 	TotalLostPackets 	0
scalar IntersectionExampleScenario.node[4].nic.mac1609_4 	DroppedPacketsInMac 	0
scalar IntersectionExampleScenario.node[4].nic.mac1609_4 	TooLittleTime 	0
scalar IntersectionExampleScenario.node[4].nic.mac1609_4 	TimesIntoBackoff 	0
scalar IntersectionExampleScenario.node[4].nic.mac1609_4 	SlotsBackoff 	0
scalar IntersectionExampleScenario.node[4].nic.mac1609_4 	NumInternalContention 	0
scalar IntersectionExampleScenario.node[4].nic.mac1609_4 	totalBusyTime 	0
scalar IntersectionExampleScenario.node[4].veinsmobility 	startTime 	16.75
scalar IntersectionExampleScenario.node[4].veinsmobility 	totalTime 	41.25
scalar IntersectionExampleScenario.node[4].veinsmobility 	stopTime 	58.25
scalar IntersectionExampleScenario.node[4].veinsmobility 	minSpeed 	5.6500000953674
scalar IntersectionExampleScenario.node[4].veinsmobility 	maxSpeed 	15.25
scalar IntersectionExampleScenario.node[4].veinsmobility 	totalDistance 	545.2138226901
scalar IntersectionExampleScenario.node[4].veinsmobility 	totalCO2Emission 	123.30822151252
scalar IntersectionExampleScenario.node[5].appl 	VehicleRemoved 	0
scalar IntersectionExampleScenario.node[5].appl 	ArrivedAtDest 	1
scalar IntersectionExampleScenario.node[5].appl 	IntersectionEnterTime 	19.5
scalar IntersectionExampleScenario.node[5].appl 	IntersectionExitTime 	44.289849850145
scalar IntersectionExampleScenario.node[5].appl 	NumberOfCollisions 	0
scalar IntersectionExampleScenario.node[5].nic.phy80211p 	busyTime 	0
scalar IntersectionExampleScenario.node[5].nic.mac1609_4 	ReceivedUnicastPackets 	0
scalar IntersectionExampleScenario.node[5].nic.mac1609_4 	ReceivedBroadcasts 	0
scalar IntersectionExampleScenario.node[5].nic.mac1609_4 	SentPackets 	0
scalar IntersectionExampleScenario.node[5].nic.mac1609_4 	SNIRLostPackets 	0
scalar IntersectionExampleScenario.node[5].nic.mac1609_4 	RXTXLostPackets 	0
scalar IntersectionExampleScenario.node[5].nic.mac1609_4 	TotalLostPackets 	0
scalar IntersectionExampleScenario.node[5].nic.mac1609_4 	DroppedPacketsInMac 	0
scalar IntersectionExampleScenario.node[5].nic.mac1609_4 	TooLittleTime 	0
scalar IntersectionExampleScenario.node[5].nic.mac1609_4 	TimesIntoBackoff 	0
scalar IntersectionExampleScenario.node[5].nic.mac1609_4 	SlotsBackoff 	0
scalar IntersectionExampleScenario.node[5].nic.mac1609_4 	NumInternalContention 	0
scalar IntersectionExampleScenario.node[5].nic.mac1609_4 	totalBusyTime 	0
scalar IntersectionExampleScenario.node[5].veinsmobility 	startTime 	19.5
scalar IntersectionExampleScenario.node[5].veinsmobility 	totalTime 	41.75
scalar IntersectionExampleScenario.node[5].veinsmobility 	stopTime 	61.5
scalar IntersectionExampleScenario.node[5].veinsmobility 	minSpeed 	5.6500000953674
scalar IntersectionExampleScenario.node[5].veinsmobility 	maxSpeed 	15.25
scalar IntersectionExampleScenario.node[5].veinsmobility 	totalDistance 	558.36791408419
scalar IntersectionExampleScenario.node[5].veinsmobility 	totalCO2Emission 	124.52970793108
scalar IntersectionExampleScenario.node[2].appl 	VehicleRemoved 	0
scalar IntersectionExampleScenario.node[2].appl 	ArrivedAtDest 	1
scalar IntersectionExampleScenario.node[2].appl 	IntersectionEnterTime 	11.5
scalar IntersectionExampleScenario.node[2].appl 	IntersectionExitTime 	49.263592008851
scalar IntersectionExampleScenario.node[2].appl 	NumberOfCollisions 	0
scalar IntersectionExampleScenario.node[2].nic.phy80211p 	busyTime 	0
scalar IntersectionExampleScenario.node[2].nic.mac1609_4 	ReceivedUnicastPackets 	0
scalar IntersectionExampleScenario.node[2].nic.mac1609_4 	ReceivedBroadcasts 	0
scalar IntersectionExampleScenario.node[2].nic.mac1609_4 	SentPackets 	0
scalar IntersectionExampleScenario.node[2].nic.mac1609_4 	SNIRLostPackets 	0
scalar IntersectionExampleScenario.node[2].nic.mac1609_4 	RXTXLostPackets 	0
scalar IntersectionExampleScenario.node[2].nic.mac1609_4 	TotalLostPackets 	0
scalar IntersectionExampleScenario.node[2].nic.mac1609_4 	DroppedPacketsInMac 	0
scalar IntersectionExampleScenario.node[2].nic.mac1609_4 	TooLittleTime 	0
scalar IntersectionExampleScenario.node[2].nic.mac1609_4 	TimesIntoBackoff 	0
scalar IntersectionExampleScenario.node[2].nic.mac1609_4 	SlotsBackoff 	0
scalar IntersectionExampleScenario.node[2].nic.mac1609_4 	NumInternalContention 	0
scalar IntersectionExampleScenario.node[2].nic.mac1609_4 	totalBusyTime 	0
scalar IntersectionExampleScenario.node[2].veinsmobility 	startTime 	11.5
scalar IntersectionExampleScenario.node[2].veinsmobility 	totalTime 	53.75
scalar IntersectionExampleScenario.node[2].veinsmobility 	stopTime 	65.5
scalar IntersectionExampleScenario.node[2].veinsmobility 	minSpeed 	0
scalar IntersectionExampleScenario.node[2].veinsmobility 	maxSpeed 	15.64999961853
scalar IntersectionExampleScenario.node[2].veinsmobility 	totalDistance 	548.86374773135
scalar IntersectionExampleScenario.node[2].veinsmobility 	totalCO2Emission 	145.81493159916
scalar IntersectionExampleScenario.node[0].appl 	VehicleRemoved 	0
scalar IntersectionExampleScenario.node[0].appl 	ArrivedAtDest 	1
scalar IntersectionExampleScenario.node[0].appl 	IntersectionEnterTime 	8.5
scalar IntersectionExampleScenario.node[0].appl 	IntersectionExitTime 	49.340616740665
scalar IntersectionExampleScenario.node[0].appl 	NumberOfCollisions 	0
scalar IntersectionExampleScenario.node[0].nic.phy80211p 	busyTime 	0
scalar IntersectionExampleScenario.node[0].nic.mac1609_4 	ReceivedUnicastPackets 	0
scalar IntersectionExampleScenario.node[0].nic.mac1609_4 	ReceivedBroadcasts 	0
scalar IntersectionExampleScenario.node[0].nic.mac1609_4 	SentPackets 	0
scalar IntersectionExampleScenario.node[0].nic.mac1609_4 	SNIRLostPackets 	0
scalar IntersectionExampleScenario.node[0].nic.mac1609_4 	RXTXLostPackets 	0
scalar IntersectionExampleScenario.node[0].nic.mac1609_4 	TotalLostPackets 	0
scalar IntersectionExampleScenario.node[0].nic.mac1609_4 	DroppedPacketsInMac 	0
scalar IntersectionExampleScenario.node[0].nic.mac1609_4 	TooLittleTime 	0
scalar IntersectionExampleScenario.node[0].nic.mac1609_4 	TimesIntoBackoff 	0
scalar IntersectionExampleScenario.node[0].nic.mac1609_4 	SlotsBackoff 	0
scalar IntersectionExampleScenario.node[0].nic.mac1609_4 	NumInternalContention 	0
scalar IntersectionExampleScenario.node[0].nic.mac1609_4 	totalBusyTime 	0
scalar IntersectionExampleScenario.node[0].veinsmobility 	startTime 	8.5
scalar IntersectionExampleScenario.node[0].veinsmobility 	totalTime 	57
scalar IntersectionExampleScenario.node[0].veinsmobility 	stopTime 	65.75
scalar IntersectionExampleScenario.node[0].veinsmobility 	minSpeed 	0
scalar IntersectionExampleScenario.node[0].veinsmobility 	maxSpeed 	15.375
scalar IntersectionExampleScenario.node[0].veinsmobility 	totalDistance 	551.07523345947
scalar IntersectionExampleScenario.node[0].veinsmobility 	totalCO2Emission 	146.34773794709
scalar IntersectionExampleScenario.node[3].appl 	VehicleRemoved 	0
scalar IntersectionExampleScenario.node[3].appl 	ArrivedAtDest 	1
scalar IntersectionExampleScenario.node[3].appl 	IntersectionEnterTime 	15.75
scalar IntersectionExampleScenario.node[3].appl 	IntersectionExitTime 	51.829041751887
scalar IntersectionExampleScenario.node[3].appl 	NumberOfCollisions 	0
scalar IntersectionExampleScenario.node[3].nic.phy80211p 	busyTime 	0
scalar IntersectionExampleScenario.node[3].nic.mac1609_4 	ReceivedUnicastPackets 	0
scalar IntersectionExampleScenario.node[3].nic.mac1609_4 	ReceivedBroadcasts 	0
scalar IntersectionExampleScenario.node[3].nic.mac1609_4 	SentPackets 	0
scalar IntersectionExampleScenario.node[3].nic.mac1609_4 	SNIRLostPackets 	0
scalar IntersectionExampleScenario.node[3].nic.mac1609_4 	RXTXLostPackets 	0
scalar IntersectionExampleScenario.node[3].nic.mac1609_4 	TotalLostPackets 	0
scalar IntersectionExampleScenario.node[3].nic.mac1609_4 	DroppedPacketsInMac 	0
scalar IntersectionExampleScenario.node[3].nic.mac1609_4 	TooLittleTime 	0
scalar IntersectionExampleScenario.node[3].nic.mac1609_4 	TimesIntoBackoff 	0
scalar IntersectionExampleScenario.node[3].nic.mac1609_4 	SlotsBackoff 	0
scalar IntersectionExampleScenario.node[3].nic.mac1609_4 	NumInternalContention 	0
scalar IntersectionExampleScenario.node[3].nic.mac1609_4 	totalBusyTime 	0
scalar IntersectionExampleScenario.node[3].veinsmobility 	startTime 	15.75
scalar IntersectionExampleScenario.node[3].veinsmobility 	totalTime 	53.25
scalar IntersectionExampleScenario.node[3].veinsmobility 	stopTime 	69.25
scalar IntersectionExampleScenario.node[3].veinsmobility 	minSpeed 	0
scalar IntersectionExampleScenario.node[3].veinsmobility 	maxSpeed 	14.75
scalar IntersectionExampleScenario.node[3].veinsmobility 	totalDistance 	554.49989111706
scalar IntersectionExampleScenario.node[3].veinsmobility 	totalCO2Emission 	135.57850420336
scalar IntersectionExampleScenario.node[8].appl 	VehicleRemoved 	0
scalar IntersectionExampleScenario.node[8].appl 	ArrivedAtDest 	1
scalar IntersectionExampleScenario.node[8].appl 	IntersectionEnterTime 	25.5
scalar IntersectionExampleScenario.node[8].appl 	IntersectionExitTime 	54.368637799751
scalar IntersectionExampleScenario.node[8].appl 	NumberOfCollisions 	0
scalar IntersectionExampleScenario.node[8].nic.phy80211p 	busyTime 	0
scalar IntersectionExampleScenario.node[8].nic.mac1609_4 	ReceivedUnicastPackets 	0
scalar IntersectionExampleScenario.node[8].nic.mac1609_4 	ReceivedBroadcasts 	0
scalar IntersectionExampleScenario.node[8].nic.mac1609_4 	SentPackets 	0
scalar IntersectionExampleScenario.node[8].nic.mac1609_4 	SNIRLostPackets 	0
scalar IntersectionExampleScenario.node[8].nic.mac1609_4 	RXTXLostPackets 	0
scalar IntersectionExampleScenario.node[8].nic.mac1609_4 	TotalLostPackets 	0
scalar IntersectionExampleScenario.node[8].nic.mac1609_4 	DroppedPacketsInMac 	0
scalar IntersectionExampleScenario.node[8].nic.mac1609_4 	TooLittleTime 	0
scalar IntersectionExampleScenario.node[8].nic.mac1609_4 	TimesIntoBackoff 	0
scalar IntersectionExampleScenario.node[8].nic.mac1609_4 	SlotsBackoff 	0
scalar IntersectionExampleScenario.node[8].nic.mac1609_4 	NumInternalContention 	0
scalar IntersectionExampleScenario.node[8].nic.mac1609_4 	totalBusyTime 	0
scalar IntersectionExampleScenario.node[8].veinsmobility 	startTime 	25.5
scalar IntersectionExampleScenario.node[8].veinsmobility 	totalTime 	45.25
scalar IntersectionExampleScenario.node[8].veinsmobility 	stopTime 	71
scalar IntersectionExampleScenario.node[8].veinsmobility 	minSpeed 	0
scalar IntersectionExampleScenario.node[8].veinsmobility 	maxSpeed 	15.64999961853
scalar IntersectionExampleScenario.node[8].veinsmobility 	totalDistance 	543.91773510211
scalar IntersectionExampleScenario.node[8].veinsmobility 	totalCO2Emission 	147.10803229368
scalar IntersectionExampleScenario.node[9].appl 	VehicleRemoved 	0
scalar IntersectionExampleScenario.node[9].appl 	ArrivedAtDest 	1
scalar IntersectionExampleScenario.node[9].appl 	IntersectionEnterTime 	26.75
scalar IntersectionExampleScenario.node[9].appl 	IntersectionExitTime 	56.599554468878
scalar IntersectionExampleScenario.node[9].appl 	NumberOfCollisions 	0
scalar IntersectionExampleScenario.node[9].nic.phy80211p 	busyTime 	0
scalar IntersectionExampleScenario.node[9].nic.mac1609_4 	ReceivedUnicastPackets 	0
scalar IntersectionExampleScenario.node[9].nic.mac1609_4 	ReceivedBroadcasts 	0
scalar IntersectionExampleScenario.node[9].nic.mac1609_4 	SentPackets 	0
scalar IntersectionExampleScenario.node[9].nic.mac1609_4 	SNIRLostPackets 	0
scalar IntersectionExampleScenario.node[9].nic.mac1609_4 	RXTXLostPackets 	0
scalar IntersectionExampleScenario.node[9].nic.mac1609_4 	TotalLostPackets 	0
scalar IntersectionExampleScenario.node[9].nic.mac1609_4 	DroppedPacketsInMac 	0
scalar IntersectionExampleScenario.node[9].nic.mac1609_4 	TooLittleTime 	0
scalar IntersectionExampleScenario.node[9].nic.mac1609_4 	TimesIntoBackoff 	0
scalar IntersectionExampleScenario.node[9].nic.mac1609_4 	SlotsBackoff 	0
scalar IntersectionExampleScenario.node[9].nic.mac1609_4 	NumInternalContention 	0
scalar IntersectionExampleScenario.node[9].nic.mac1609_4 	totalBusyTime 	0
scalar IntersectionExampleScenario.node[9].veinsmobility 	startTime 	26.75
scalar IntersectionExampleScenario.node[9].veinsmobility 	totalTime 	45.75
scalar IntersectionExampleScenario.node[9].veinsmobility 	stopTime 	72.75
scalar IntersectionExampleScenario.node[9].veinsmobility 	minSpeed 	3.551233291626
scalar IntersectionExampleScenario.node[9].veinsmobility 	maxSpeed 	15.64999961853
scalar IntersectionExampleScenario.node[9].veinsmobility 	totalDistance 	553.40295410156
scalar IntersectionExampleScenario.node[9].veinsmobility 	totalCO2Emission 	132.53101509577
scalar IntersectionExampleScenario.node[7].appl 	VehicleRemoved 	0
scalar IntersectionExampleScenario.node[7].appl 	ArrivedAtDest 	1
scalar IntersectionExampleScenario.node[7].appl 	IntersectionEnterTime 	21.75
scalar IntersectionExampleScenario.node[7].appl 	IntersectionExitTime 	56.605997375184
scalar IntersectionExampleScenario.node[7].appl 	NumberOfCollisions 	0
scalar IntersectionExampleScenario.node[7].nic.phy80211p 	busyTime 	0
scalar IntersectionExampleScenario.node[7].nic.mac1609_4 	ReceivedUnicastPackets 	0
scalar IntersectionExampleScenario.node[7].nic.mac1609_4 	ReceivedBroadcasts 	0
scalar IntersectionExampleScenario.node[7].nic.mac1609_4 	SentPackets 	0
scalar IntersectionExampleScenario.node[7].nic.mac1609_4 	SNIRLostPackets 	0
scalar IntersectionExampleScenario.node[7].nic.mac1609_4 	RXTXLostPackets 	0
scalar IntersectionExampleScenario.node[7].nic.mac1609_4 	TotalLostPackets 	0
scalar IntersectionExampleScenario.node[7].nic.mac1609_4 	DroppedPacketsInMac 	0
scalar IntersectionExampleScenario.node[7].nic.mac1609_4 	TooLittleTime 	0
scalar IntersectionExampleScenario.node[7].nic.mac1609_4 	TimesIntoBackoff 	0
scalar IntersectionExampleScenario.node[7].nic.mac1609_4 	SlotsBackoff 	0
scalar IntersectionExampleScenario.node[7].nic.mac1609_4 	NumInternalContention 	0
scalar IntersectionExampleScenario.node[7].nic.mac1609_4 	totalBusyTime 	0
scalar IntersectionExampleScenario.node[7].veinsmobility 	startTime 	21.75
scalar IntersectionExampleScenario.node[7].veinsmobility 	totalTime 	50.75
scalar IntersectionExampleScenario.node[7].veinsmobility 	stopTime 	72.75
scalar IntersectionExampleScenario.node[7].veinsmobility 	minSpeed 	2.4395408630371
scalar IntersectionExampleScenario.node[7].veinsmobility 	maxSpeed 	15.678606987
scalar IntersectionExampleScenario.node[7].veinsmobility 	totalDistance 	548.00416102456
scalar IntersectionExampleScenario.node[7].veinsmobility 	totalCO2Emission 	147.86497242979
scalar IntersectionExampleScenario.node[12].appl 	VehicleRemoved 	0
scalar IntersectionExampleScenario.node[12].appl 	ArrivedAtDest 	1
scalar IntersectionExampleScenario.node[12].appl 	IntersectionEnterTime 	33
scalar IntersectionExampleScenario.node[12].appl 	IntersectionExitTime 	58.256335048907
scalar IntersectionExampleScenario.node[12].appl 	NumberOfCollisions 	0
scalar IntersectionExampleScenario.node[12].nic.phy80211p 	busyTime 	0
scalar IntersectionExampleScenario.node[12].nic.mac1609_4 	ReceivedUnicastPackets 	0
scalar IntersectionExampleScenario.node[12].nic.mac1609_4 	ReceivedBroadcasts 	0
scalar IntersectionExampleScenario.node[12].nic.mac1609_4 	SentPackets 	0
scalar IntersectionExampleScenario.node[12].nic.mac1609_4 	SNIRLostPackets 	0
scalar IntersectionExampleScenario.node[12].nic.mac1609_4 	RXTXLostPackets 	0
scalar IntersectionExampleScenario.node[12].nic.mac1609_4 	TotalLostPackets 	0
scalar IntersectionExampleScenario.node[12].nic.mac1609_4 	DroppedPacketsInMac 	0
scalar IntersectionExampleScenario.node[12].nic.mac1609_4 	TooLittleTime 	0
scalar IntersectionExampleScenario.node[12].nic.mac1609_4 	TimesIntoBackoff 	0
scalar IntersectionExampleScenario.node[12].nic.mac1609_4 	SlotsBackoff 	0
scalar IntersectionExampleScenario.node[12].nic.mac1609_4 	NumInternalContention 	0
scalar IntersectionExampleScenario.node[12].nic.mac1609_4 	totalBusyTime 	0
scalar IntersectionExampleScenario.node[12].veinsmobility 	startTime 	33
scalar IntersectionExampleScenario.node[12].veinsmobility 	totalTime 	41.25
scalar IntersectionExampleScenario.node[12].veinsmobility 	stopTime 	74.5
scalar IntersectionExampleScenario.node[12].veinsmobility 	minSpeed 	5.6500000953674
scalar IntersectionExampleScenario.node[12].veinsmobility 	maxSpeed 	15.64999961853
scalar IntersectionExampleScenario.node[12].veinsmobility 	totalDistance 	554.84550476074
scalar IntersectionExampleScenario.node[12].veinsmobility 	totalCO2Emission 	123.1287780723
scalar IntersectionExampleScenario.node[13].appl 	VehicleRemoved 	0
scalar IntersectionExampleScenario.node[13].appl 	ArrivedAtDest 	1
scalar IntersectionExampleScenario.node[13].appl 	IntersectionEnterTime 	39
scalar IntersectionExampleScenario.node[13].appl 	IntersectionExitTime 	62.58318600303
scalar IntersectionExampleScenario.node[13].appl 	NumberOfCollisions 	0
scalar IntersectionExampleScenario.node[13].nic.phy80211p 	busyTime 	0
scalar IntersectionExampleScenario.node[13].nic.mac1609_4 	ReceivedUnicastPackets 	0
scalar IntersectionExampleScenario.node[13].nic.mac1609_4 	ReceivedBroadcasts 	0
scalar IntersectionExampleScenario.node[13].nic.mac1609_4 	SentPackets 	0
scalar IntersectionExampleScenario.node[13].nic.mac1609_4 	SNIRLostPackets 	0
scalar IntersectionExampleScenario.node[13].nic.mac1609_4 	RXTXLostPackets 	0
scalar IntersectionExampleScenario.node[13].nic.mac1609_4 	TotalLostPackets 	0
scalar IntersectionExampleScenario.node[13].nic.mac1609_4 	DroppedPacketsInMac 	0
scalar IntersectionExampleScenario.node[13].nic.mac1609_4 	TooLittleTime 	0
scalar IntersectionExampleScenario.node[13].nic.mac1609_4 	TimesIntoBackoff 	0
scalar IntersectionExampleScenario.node[13].nic.mac1609_4 	SlotsBackoff 	0
scalar IntersectionExampleScenario.node[13].nic.mac1609_4 	NumInternalContention 	0
scalar IntersectionExampleScenario.node[13].nic.mac1609_4 	totalBusyTime 	0
scalar IntersectionExampleScenario.node[13].veinsmobility 	startTime 	39
scalar IntersectionExampleScenario.node[13].veinsmobility 	totalTime 	40.25
scalar IntersectionExampleScenario.node[13].veinsmobility 	stopTime 	79.5
scalar IntersectionExampleScenario.node[13].veinsmobility 	minSpeed 	5.6500000953674
scalar IntersectionExampleScenario.node[13].veinsmobility 	maxSpeed 	15.847158432007
scalar IntersectionExampleScenario.node[13].veinsmobility 	totalDistance 	544.95279674867
scalar IntersectionExampleScenario.node[13].veinsmobility 	totalCO2Emission 	130.13264741112
scalar IntersectionExampleScenario.node[6].appl 	VehicleRemoved 	0
scalar IntersectionExampleScenario.node[6].appl 	ArrivedAtDest 	1
scalar IntersectionExampleScenario.node[6].appl 	IntersectionEnterTime 	21.5
scalar IntersectionExampleScenario.node[6].appl 	IntersectionExitTime 	65.574942924286
scalar IntersectionExampleScenario.node[6].appl 	NumberOfCollisions 	0
scalar IntersectionExampleScenario.node[6].nic.phy80211p 	busyTime 	0
scalar IntersectionExampleScenario.node[6].nic.mac1609_4 	ReceivedUnicastPackets 	0
scalar IntersectionExampleScenario.node[6].nic.mac1609_4 	ReceivedBroadcasts 	0
scalar IntersectionExampleScenario.node[6].nic.mac1609_4 	SentPackets 	0
scalar IntersectionExampleScenario.node[6].nic.mac1609_4 	SNIRLostPackets 	0
scalar IntersectionExampleScenario.node[6].nic.mac1609_4 	RXTXLostPackets 	0
scalar IntersectionExampleScenario.node[6].nic.mac1609_4 	TotalLostPackets 	0
scalar IntersectionExampleScenario.node[6].nic.mac1609_4 	DroppedPacketsInMac 	0
scalar IntersectionExampleScenario.node[6].nic.mac1609_4 	TooLittleTime 	0
scalar IntersectionExampleScenario.node[6].nic.mac1609_4 	TimesIntoBackoff 	0
scalar IntersectionExampleScenario.node[6].nic.mac1609_4 	SlotsBackoff 	0
scalar IntersectionExampleScenario.node[6].nic.mac1609_4 	NumInternalContention 	0
scalar IntersectionExampleScenario.node[6].nic.mac1609_4 	totalBusyTime 	0
scalar IntersectionExampleScenario.node[6].veinsmobility 	startTime 	21.5
scalar IntersectionExampleScenario.node[6].veinsmobility 	totalTime 	60.5
scalar IntersectionExampleScenario.node[6].veinsmobility 	stopTime 	82.25
scalar IntersectionExampleScenario.node[6].veinsmobility 	minSpeed 	0
scalar IntersectionExampleScenario.node[6].veinsmobility 	maxSpeed 	15.875
scalar IntersectionExampleScenario.node[6].veinsmobility 	totalDistance 	544.83440305144
scalar IntersectionExampleScenario.node[6].veinsmobility 	totalCO2Emission 	154.46220034678
scalar IntersectionExampleScenario.node[10].appl 	VehicleRemoved 	0
scalar IntersectionExampleScenario.node[10].appl 	ArrivedAtDest 	1
scalar IntersectionExampleScenario.node[10].appl 	IntersectionEnterTime 	31.5
scalar IntersectionExampleScenario.node[10].appl 	IntersectionExitTime 	67.309556646127
scalar IntersectionExampleScenario.node[10].appl 	NumberOfCollisions 	0
scalar IntersectionExampleScenario.node[10].nic.phy80211p 	busyTime 	0
scalar IntersectionExampleScenario.node[10].nic.mac1609_4 	ReceivedUnicastPackets 	0
scalar IntersectionExampleScenario.node[10].nic.mac1609_4 	ReceivedBroadcasts 	0
scalar IntersectionExampleScenario.node[10].nic.mac1609_4 	SentPackets 	0
scalar IntersectionExampleScenario.node[10].nic.mac1609_4 	SNIRLostPackets 	0
scalar IntersectionExampleScenario.node[10].nic.mac1609_4 	RXTXLostPackets 	0
scalar IntersectionExampleScenario.node[10].nic.mac1609_4 	TotalLostPackets 	0
scalar IntersectionExampleScenario.node[10].nic.mac1609_4 	DroppedPacketsInMac 	0
scalar IntersectionExampleScenario.node[10].nic.mac1609_4 	TooLittleTime 	0
scalar IntersectionExampleScenario.node[10].nic.mac1609_4 	TimesIntoBackoff 	0
scalar IntersectionExampleScenario.node[10].nic.mac1609_4 	SlotsBackoff 	0
scalar IntersectionExampleScenario.node[10].nic.mac1609_4 	NumInternalContention 	0
scalar IntersectionExampleScenario.node[10].nic.mac1609_4 	totalBusyTime 	0
scalar IntersectionExampleScenario.node[10].veinsmobility 	startTime 	31.5
scalar IntersectionExampleScenario.node[10].veinsmobility 	totalTime 	51.75
scalar IntersectionExampleScenario.node[10].veinsmobility 	stopTime 	83.5
scalar IntersectionExampleScenario.node[10].veinsmobility 	minSpeed 	0
scalar IntersectionExampleScenario.node[10].veinsmobility 	maxSpeed 	16.27499961853
scalar IntersectionExampleScenario.node[10].veinsmobility 	totalDistance 	552.45100522519
scalar IntersectionExampleScenario.node[10].veinsmobility 	totalCO2Emission 	145.45943058177
scalar IntersectionExampleScenario.node[15].appl 	VehicleRemoved 	0
scalar IntersectionExampleScenario.node[15].appl 	ArrivedAtDest 	1
scalar IntersectionExampleScenario.node[15].appl 	IntersectionEnterTime 	45.75
scalar IntersectionExampleScenario.node[15].appl 	IntersectionExitTime 	70.840070691775
scalar IntersectionExampleScenario.node[15].appl 	NumberOfCollisions 	0
scalar IntersectionExampleScenario.node[15].nic.phy80211p 	busyTime 	0
scalar IntersectionExampleScenario.node[15].nic.mac1609_4 	ReceivedUnicastPackets 	0
scalar IntersectionExampleScenario.node[15].nic.mac1609_4 	ReceivedBroadcasts 	0
scalar IntersectionExampleScenario.node[15].nic.mac1609_4 	SentPackets 	0
scalar IntersectionExampleScenario.node[15].nic.mac1609_4 	SNIRLostPackets 	0
scalar IntersectionExampleScenario.node[15].nic.mac1609_4 	RXTXLostPackets 	0
scalar IntersectionExampleScenario.node[15].nic.mac1609_4 	TotalLostPackets 	0
scalar IntersectionExampleScenario.node[15].nic.mac1609_4 	DroppedPacketsInMac 	0
scalar IntersectionExampleScenario.node[15].nic.mac1609_4 	TooLittleTime 	0
scalar IntersectionExampleScenario.node[15].nic.mac1609_4 	TimesIntoBackoff 	0
scalar IntersectionExampleScenario.node[15].nic.mac1609_4 	SlotsBackoff 	0
scalar IntersectionExampleScenario.node[15].nic.mac1609_4 	NumInternalContention 	0
scalar IntersectionExampleScenario.node[15].nic.mac1609_4 	totalBusyTime 	0
scalar IntersectionExampleScenario.node[15].veinsmobility 	startTime 	45.75
scalar IntersectionExampleScenario.node[15].veinsmobility 	totalTime 	42.5
scalar IntersectionExampleScenario.node[15].veinsmobility 	stopTime 	88.5
scalar IntersectionExampleScenario.node[15].veinsmobility 	minSpeed 	5.6500000953674
scalar IntersectionExampleScenario.node[15].veinsmobility 	maxSpeed 	14.625
scalar IntersectionExampleScenario.node[15].veinsmobility 	totalDistance 	543.26334778222
scalar IntersectionExampleScenario.node[15].veinsmobility 	totalCO2Emission 	130.73579201652
scalar IntersectionExampleScenario.node[19].appl 	VehicleRemoved 	0
scalar IntersectionExampleScenario.node[19].appl 	ArrivedAtDest 	1
scalar IntersectionExampleScenario.node[19].appl 	IntersectionEnterTime 	53.25
scalar IntersectionExampleScenario.node[19].appl 	IntersectionExitTime 	75.267443873134
scalar IntersectionExampleScenario.node[19].appl 	NumberOfCollisions 	0
scalar IntersectionExampleScenario.node[19].nic.phy80211p 	busyTime 	0
scalar IntersectionExampleScenario.node[19].nic.mac1609_4 	ReceivedUnicastPackets 	0
scalar IntersectionExampleScenario.node[19].nic.mac1609_4 	ReceivedBroadcasts 	0
scalar IntersectionExampleScenario.node[19].nic.mac1609_4 	SentPackets 	0
scalar IntersectionExampleScenario.node[19].nic.mac1609_4 	SNIRLostPackets 	0
scalar IntersectionExampleScenario.node[19].nic.mac1609_4 	RXTXLostPackets 	0
scalar IntersectionExampleScenario.node[19].nic.mac1609_4 	TotalLostPackets 	0
scalar IntersectionExampleScenario.node[19].nic.mac1609_4 	DroppedPacketsInMac 	0
scalar IntersectionExampleScenario.node[19].nic.mac1609_4 	TooLittleTime 	0
scalar IntersectionExampleScenario.node[19].nic.mac1609_4 	TimesIntoBackoff 	0
scalar IntersectionExampleScenario.node[19].nic.mac1609_4 	SlotsBackoff 	0
scalar IntersectionExampleScenario.node[19].nic.mac1609_4 	NumInternalContention 	0
scalar IntersectionExampleScenario.node[19].nic.mac1609_4 	totalBusyTime 	0
scalar IntersectionExampleScenario.node[19].veinsmobility 	startTime 	53.25
scalar IntersectionExampleScenario.node[19].veinsmobility 	totalTime 	37
scalar IntersectionExampleScenario.node[19].veinsmobility 	stopTime 	90.5
scalar IntersectionExampleScenario.node[19].veinsmobility 	minSpeed 	5.6500000953674
scalar IntersectionExampleScenario.node[19].veinsmobility 	maxSpeed 	16.75
scalar IntersectionExampleScenario.node[19].veinsmobility 	totalDistance 	552.50128173828
scalar IntersectionExampleScenario.node[19].veinsmobility 	totalCO2Emission 	125.09190366795
scalar IntersectionExampleScenario.node[11].appl 	VehicleRemoved 	0
scalar IntersectionExampleScenario.node[11].appl 	ArrivedAtDest 	1
scalar IntersectionExampleScenario.node[11].appl 	IntersectionEnterTime 	32
scalar IntersectionExampleScenario.node[11].appl 	IntersectionExitTime 	80.334691348893
scalar IntersectionExampleScenario.node[11].appl 	NumberOfCollisions 	0
scalar IntersectionExampleScenario.node[11].nic.phy80211p 	busyTime 	0
scalar IntersectionExampleScenario.node[11].nic.mac1609_4 	ReceivedUnicastPackets 	0
scalar IntersectionExampleScenario.node[11].nic.mac1609_4 	ReceivedBroadcasts 	0
scalar IntersectionExampleScenario.node[11].nic.mac1609_4 	SentPackets 	0
scalar IntersectionExampleScenario.node[11].nic.mac1609_4 	SNIRLostPackets 	0
scalar IntersectionExampleScenario.node[11].nic.mac1609_4 	RXTXLostPackets 	0
scalar IntersectionExampleScenario.node[11].nic.mac1609_4 	TotalLostPackets 	0
scalar IntersectionExampleScenario.node[11].nic.mac1609_4 	DroppedPacketsInMac 	0
scalar IntersectionExampleScenario.node[11].nic.mac1609_4 	TooLittleTime 	0
scalar IntersectionExampleScenario.node[11].nic.mac1609_4 	TimesIntoBackoff 	0
scalar IntersectionExampleScenario.node[11].nic.mac1609_4 	SlotsBackoff 	0
scalar IntersectionExampleScenario.node[11].nic.mac1609_4 	NumInternalContention 	0
scalar IntersectionExampleScenario.node[11].nic.mac1609_4 	totalBusyTime 	0
scalar IntersectionExampleScenario.node[11].veinsmobility 	startTime 	32
scalar IntersectionExampleScenario.node[11].veinsmobility 	totalTime 	64.5
scalar IntersectionExampleScenario.node[11].veinsmobility 	stopTime 	96.75
scalar IntersectionExampleScenario.node[11].veinsmobility 	minSpeed 	0
scalar IntersectionExampleScenario.node[11].veinsmobility 	maxSpeed 	15.375
scalar IntersectionExampleScenario.node[11].veinsmobility 	totalDistance 	552.79929351807
scalar IntersectionExampleScenario.node[11].veinsmobility 	totalCO2Emission 	154.65701439586
scalar IntersectionExampleScenario.node[14].appl 	VehicleRemoved 	0
scalar IntersectionExampleScenario.node[14].appl 	ArrivedAtDest 	1
scalar IntersectionExampleScenario.node[14].appl 	IntersectionEnterTime 	39.75
scalar IntersectionExampleScenario.node[14].appl 	IntersectionExitTime 	82.526850448048
scalar IntersectionExampleScenario.node[14].appl 	NumberOfCollisions 	0
scalar IntersectionExampleScenario.node[14].nic.phy80211p 	busyTime 	0
scalar IntersectionExampleScenario.node[14].nic.mac1609_4 	ReceivedUnicastPackets 	0
scalar IntersectionExampleScenario.node[14].nic.mac1609_4 	ReceivedBroadcasts 	0
scalar IntersectionExampleScenario.node[14].nic.mac1609_4 	SentPackets 	0
scalar IntersectionExampleScenario.node[14].nic.mac1609_4 	SNIRLostPackets 	0
scalar IntersectionExampleScenario.node[14].nic.mac1609_4 	RXTXLostPackets 	0
scalar IntersectionExampleScenario.node[14].nic.mac1609_4 	TotalLostPackets 	0
scalar IntersectionExampleScenario.node[14].nic.mac1609_4 	DroppedPacketsInMac 	0
scalar IntersectionExampleScenario.node[14].nic.mac1609_4 	TooLittleTime 	0
scalar IntersectionExampleScenario.node[14].nic.mac1609_4 	TimesIntoBackoff 	0
scalar IntersectionExampleScenario.node[14].nic.mac1609_4 	SlotsBackoff 	0
scalar IntersectionExampleScenario.node[14].nic.mac1609_4 	NumInternalContention 	0
scalar IntersectionExampleScenario.node[14].nic.mac1609_4 	totalBusyTime 	0
scalar IntersectionExampleScenario.node[14].veinsmobility 	startTime 	39.75
scalar IntersectionExampleScenario.node[14].veinsmobility 	totalTime 	59
scalar IntersectionExampleScenario.node[14].veinsmobility 	stopTime 	99
scalar IntersectionExampleScenario.node[14].veinsmobility 	minSpeed 	0
scalar IntersectionExampleScenario.node[14].veinsmobility 	maxSpeed 	15.280232429504
scalar IntersectionExampleScenario.node[14].veinsmobility 	totalDistance 	553.44040679932
scalar IntersectionExampleScenario.node[14].veinsmobility 	totalCO2Emission 	148.89159864916
scalar IntersectionExampleScenario.node[17].appl 	VehicleRemoved 	0
scalar IntersectionExampleScenario.node[17].appl 	ArrivedAtDest 	1
scalar IntersectionExampleScenario.node[17].appl 	IntersectionEnterTime 	52.75
scalar IntersectionExampleScenario.node[17].appl 	IntersectionExitTime 	84.03556001134
scalar IntersectionExampleScenario.node[17].appl 	NumberOfCollisions 	0
scalar IntersectionExampleScenario.node[17].nic.phy80211p 	busyTime 	0
scalar IntersectionExampleScenario.node[17].nic.mac1609_4 	ReceivedUnicastPackets 	0
scalar IntersectionExampleScenario.node[17].nic.mac1609_4 	ReceivedBroadcasts 	0
scalar IntersectionExampleScenario.node[17].nic.mac1609_4 	SentPackets 	0
scalar IntersectionExampleScenario.node[17].nic.mac1609_4 	SNIRLostPackets 	0
scalar IntersectionExampleScenario.node[17].nic.mac1609_4 	RXTXLostPackets 	0
scalar IntersectionExampleScenario.node[17].nic.mac1609_4 	TotalLostPackets 	0
scalar IntersectionExampleScenario.node[17].nic.mac1609_4 	DroppedPacketsInMac 	0
scalar IntersectionExampleScenario.node[17].nic.mac1609_4 	TooLittleTime 	0
scalar IntersectionExampleScenario.node[17].nic.mac1609_4 	TimesIntoBackoff 	0
scalar IntersectionExampleScenario.node[17].nic.mac1609_4 	SlotsBackoff 	0
scalar IntersectionExampleScenario.node[17].nic.mac1609_4 	NumInternalContention 	0
scalar IntersectionExampleScenario.node[17].nic.mac1609_4 	totalBusyTime 	0
scalar IntersectionExampleScenario.node[17].veinsmobility 	startTime 	52.75
scalar IntersectionExampleScenario.node[17].veinsmobility 	totalTime 	47.25
scalar IntersectionExampleScenario.node[17].veinsmobility 	stopTime 	100.25
scalar IntersectionExampleScenario.node[17].veinsmobility 	minSpeed 	2.4289951324463
scalar IntersectionExampleScenario.node[17].veinsmobility 	maxSpeed 	16.89999961853
scalar IntersectionExampleScenario.node[17].veinsmobility 	totalDistance 	546.68047853934
scalar IntersectionExampleScenario.node[17].veinsmobility 	totalCO2Emission 	145.59619968399
scalar IntersectionExampleScenario.node[23].appl 	VehicleRemoved 	0
scalar IntersectionExampleScenario.node[23].appl 	ArrivedAtDest 	1
scalar IntersectionExampleScenario.node[23].appl 	IntersectionEnterTime 	67.5
scalar IntersectionExampleScenario.node[23].appl 	IntersectionExitTime 	90.291760361783
scalar IntersectionExampleScenario.node[23].appl 	NumberOfCollisions 	0
scalar IntersectionExampleScenario.node[23].nic.phy80211p 	busyTime 	0
scalar IntersectionExampleScenario.node[23].nic.mac1609_4 	ReceivedUnicastPackets 	0
scalar IntersectionExampleScenario.node[23].nic.mac1609_4 	ReceivedBroadcasts 	0
scalar IntersectionExampleScenario.node[23].nic.mac1609_4 	SentPackets 	0
scalar IntersectionExampleScenario.node[23].nic.mac1609_4 	SNIRLostPackets 	0
scalar IntersectionExampleScenario.node[23].nic.mac1609_4 	RXTXLostPackets 	0
scalar IntersectionExampleScenario.node[23].nic.mac1609_4 	TotalLostPackets 	0
scalar IntersectionExampleScenario.node[23].nic.mac1609_4 	DroppedPacketsInMac 	0
scalar IntersectionExampleScenario.node[23].nic.mac1609_4 	TooLittleTime 	0
scalar IntersectionExampleScenario.node[23].nic.mac1609_4 	TimesIntoBackoff 	0
scalar IntersectionExampleScenario.node[23].nic.mac1609_4 	SlotsBackoff 	0
scalar IntersectionExampleScenario.node[23].nic.mac1609_4 	NumInternalContention 	0
scalar IntersectionExampleScenario.node[23].nic.mac1609_4 	totalBusyTime 	0
scalar IntersectionExampleScenario.node[23].veinsmobility 	startTime 	67.5
scalar IntersectionExampleScenario.node[23].veinsmobility 	totalTime 	38.75
scalar IntersectionExampleScenario.node[23].veinsmobility 	stopTime 	106.5
scalar IntersectionExampleScenario.node[23].veinsmobility 	minSpeed 	5.6500000953674
scalar IntersectionExampleScenario.node[23].veinsmobility 	maxSpeed 	15.64999961853
scalar IntersectionExampleScenario.node[23].veinsmobility 	totalDistance 	551.79831695557
scalar IntersectionExampleScenario.node[23].veinsmobility 	totalCO2Emission 	117.30374038964
scalar IntersectionExampleScenario.node[16].appl 	VehicleRemoved 	0
scalar IntersectionExampleScenario.node[16].appl 	ArrivedAtDest 	1
scalar IntersectionExampleScenario.node[16].appl 	IntersectionEnterTime 	51.5
scalar IntersectionExampleScenario.node[16].appl 	IntersectionExitTime 	93.581347574131
scalar IntersectionExampleScenario.node[16].appl 	NumberOfCollisions 	0
scalar IntersectionExampleScenario.node[16].nic.phy80211p 	busyTime 	0
scalar IntersectionExampleScenario.node[16].nic.mac1609_4 	ReceivedUnicastPackets 	0
scalar IntersectionExampleScenario.node[16].nic.mac1609_4 	ReceivedBroadcasts 	0
scalar IntersectionExampleScenario.node[16].nic.mac1609_4 	SentPackets 	0
scalar IntersectionExampleScenario.node[16].nic.mac1609_4 	SNIRLostPackets 	0
scalar IntersectionExampleScenario.node[16].nic.mac1609_4 	RXTXLostPackets 	0
scalar IntersectionExampleScenario.node[16].nic.mac1609_4 	TotalLostPackets 	0
scalar IntersectionExampleScenario.node[16].nic.mac1609_4 	DroppedPacketsInMac 	0
scalar IntersectionExampleScenario.node[16].nic.mac1609_4 	TooLittleTime 	0
scalar IntersectionExampleScenario.node[16].nic.mac1609_4 	TimesIntoBackoff 	0
scalar IntersectionExampleScenario.node[16].nic.mac1609_4 	SlotsBackoff 	0
scalar IntersectionExampleScenario.node[16].nic.mac1609_4 	NumInternalContention 	0
scalar IntersectionExampleScenario.node[16].nic.mac1609_4 	totalBusyTime 	0
scalar IntersectionExampleScenario.node[16].veinsmobility 	startTime 	51.5
scalar IntersectionExampleScenario.node[16].veinsmobility 	totalTime 	58.5
scalar IntersectionExampleScenario.node[16].veinsmobility 	stopTime 	110.25
scalar IntersectionExampleScenario.node[16].veinsmobility 	minSpeed 	0
scalar IntersectionExampleScenario.node[16].veinsmobility 	maxSpeed 	15.875
scalar IntersectionExampleScenario.node[16].veinsmobility 	totalDistance 	545.84717465789
scalar IntersectionExampleScenario.node[16].veinsmobility 	totalCO2Emission 	153.37973147963
scalar IntersectionExampleScenario.node[21].appl 	VehicleRemoved 	0
scalar IntersectionExampleScenario.node[21].appl 	ArrivedAtDest 	1
scalar IntersectionExampleScenario.node[21].appl 	IntersectionEnterTime 	61.75
scalar IntersectionExampleScenario.node[21].appl 	IntersectionExitTime 	94.349234050809
scalar IntersectionExampleScenario.node[21].appl 	NumberOfCollisions 	0
scalar IntersectionExampleScenario.node[21].nic.phy80211p 	busyTime 	0
scalar IntersectionExampleScenario.node[21].nic.mac1609_4 	ReceivedUnicastPackets 	0
scalar IntersectionExampleScenario.node[21].nic.mac1609_4 	ReceivedBroadcasts 	0
scalar IntersectionExampleScenario.node[21].nic.mac1609_4 	SentPackets 	0
scalar IntersectionExampleScenario.node[21].nic.mac1609_4 	SNIRLostPackets 	0
scalar IntersectionExampleScenario.node[21].nic.mac1609_4 	RXTXLostPackets 	0
scalar IntersectionExampleScenario.node[21].nic.mac1609_4 	TotalLostPackets 	0
scalar IntersectionExampleScenario.node[21].nic.mac1609_4 	DroppedPacketsInMac 	0
scalar IntersectionExampleScenario.node[21].nic.mac1609_4 	TooLittleTime 	0
scalar IntersectionExampleScenario.node[21].nic.mac1609_4 	TimesIntoBackoff 	0
scalar IntersectionExampleScenario.node[21].nic.mac1609_4 	SlotsBackoff 	0
scalar IntersectionExampleScenario.node[21].nic.mac1609_4 	NumInternalContention 	0
scalar IntersectionExampleScenario.node[21].nic.mac1609_4 	totalBusyTime 	0
scalar IntersectionExampleScenario.node[21].veinsmobility 	startTime 	61.75
scalar IntersectionExampleScenario.node[21].veinsmobility 	totalTime 	48.5
scalar IntersectionExampleScenario.node[21].veinsmobility 	stopTime 	110.5
scalar IntersectionExampleScenario.node[21].veinsmobility 	minSpeed 	0
scalar IntersectionExampleScenario.node[21].veinsmobility 	maxSpeed 	15.64999961853
scalar IntersectionExampleScenario.node[21].veinsmobility 	totalDistance 	553.04892730713
scalar IntersectionExampleScenario.node[21].veinsmobility 	totalCO2Emission 	141.39097809001
scalar IntersectionExampleScenario.node[18].appl 	VehicleRemoved 	0
scalar IntersectionExampleScenario.node[18].appl 	ArrivedAtDest 	1
scalar IntersectionExampleScenario.node[18].appl 	IntersectionEnterTime 	52.75
scalar IntersectionExampleScenario.node[18].appl 	IntersectionExitTime 	96.121731277439
scalar IntersectionExampleScenario.node[18].appl 	NumberOfCollisions 	0
scalar IntersectionExampleScenario.node[18].nic.phy80211p 	busyTime 	0
scalar IntersectionExampleScenario.node[18].nic.mac1609_4 	ReceivedUnicastPackets 	0
scalar IntersectionExampleScenario.node[18].nic.mac1609_4 	ReceivedBroadcasts 	0
scalar IntersectionExampleScenario.node[18].nic.mac1609_4 	SentPackets 	0
scalar IntersectionExampleScenario.node[18].nic.mac1609_4 	SNIRLostPackets 	0
scalar IntersectionExampleScenario.node[18].nic.mac1609_4 	RXTXLostPackets 	0
scalar IntersectionExampleScenario.node[18].nic.mac1609_4 	TotalLostPackets 	0
scalar IntersectionExampleScenario.node[18].nic.mac1609_4 	DroppedPacketsInMac 	0
scalar IntersectionExampleScenario.node[18].nic.mac1609_4 	TooLittleTime 	0
scalar IntersectionExampleScenario.node[18].nic.mac1609_4 	TimesIntoBackoff 	0
scalar IntersectionExampleScenario.node[18].nic.mac1609_4 	SlotsBackoff 	0
scalar IntersectionExampleScenario.node[18].nic.mac1609_4 	NumInternalContention 	0
scalar IntersectionExampleScenario.node[18].nic.mac1609_4 	totalBusyTime 	0
scalar IntersectionExampleScenario.node[18].veinsmobility 	startTime 	52.75
scalar IntersectionExampleScenario.node[18].veinsmobility 	totalTime 	59.5
scalar IntersectionExampleScenario.node[18].veinsmobility 	stopTime 	112.5
scalar IntersectionExampleScenario.node[18].veinsmobility 	minSpeed 	0
scalar IntersectionExampleScenario.node[18].veinsmobility 	maxSpeed 	15.945363998413
scalar IntersectionExampleScenario.node[18].veinsmobility 	totalDistance 	566.84053938669
scalar IntersectionExampleScenario.node[18].veinsmobility 	totalCO2Emission 	158.58409895147
scalar IntersectionExampleScenario.node[22].appl 	VehicleRemoved 	0
scalar IntersectionExampleScenario.node[22].appl 	ArrivedAtDest 	1
scalar IntersectionExampleScenario.node[22].appl 	IntersectionEnterTime 	65.5
scalar IntersectionExampleScenario.node[22].appl 	IntersectionExitTime 	95.331007055356
scalar IntersectionExampleScenario.node[22].appl 	NumberOfCollisions 	0
scalar IntersectionExampleScenario.node[22].nic.phy80211p 	busyTime 	0
scalar IntersectionExampleScenario.node[22].nic.mac1609_4 	ReceivedUnicastPackets 	0
scalar IntersectionExampleScenario.node[22].nic.mac1609_4 	ReceivedBroadcasts 	0
scalar IntersectionExampleScenario.node[22].nic.mac1609_4 	SentPackets 	0
scalar IntersectionExampleScenario.node[22].nic.mac1609_4 	SNIRLostPackets 	0
scalar IntersectionExampleScenario.node[22].nic.mac1609_4 	RXTXLostPackets 	0
scalar IntersectionExampleScenario.node[22].nic.mac1609_4 	TotalLostPackets 	0
scalar IntersectionExampleScenario.node[22].nic.mac1609_4 	DroppedPacketsInMac 	0
scalar IntersectionExampleScenario.node[22].nic.mac1609_4 	TooLittleTime 	0
scalar IntersectionExampleScenario.node[22].nic.mac1609_4 	TimesIntoBackoff 	0
scalar IntersectionExampleScenario.node[22].nic.mac1609_4 	SlotsBackoff 	0
scalar IntersectionExampleScenario.node[22].nic.mac1609_4 	NumInternalContention 	0
scalar IntersectionExampleScenario.node[22].nic.mac1609_4 	totalBusyTime 	0
scalar IntersectionExampleScenario.node[22].veinsmobility 	startTime 	65.5
scalar IntersectionExampleScenario.node[22].veinsmobility 	totalTime 	47.5
scalar IntersectionExampleScenario.node[22].veinsmobility 	stopTime 	113.25
scalar IntersectionExampleScenario.node[22].veinsmobility 	minSpeed 	2.2896680831909
scalar IntersectionExampleScenario.node[22].veinsmobility 	maxSpeed 	14.625
scalar IntersectionExampleScenario.node[22].veinsmobility 	totalDistance 	553.91107429785
scalar IntersectionExampleScenario.node[22].veinsmobility 	totalCO2Emission 	130.14968373044
scalar IntersectionExampleScenario.node[27].appl 	VehicleRemoved 	0
scalar IntersectionExampleScenario.node[27].appl 	ArrivedAtDest 	1
scalar IntersectionExampleScenario.node[27].appl 	IntersectionEnterTime 	79.25
scalar IntersectionExampleScenario.node[27].appl 	IntersectionExitTime 	102.87174603235
scalar IntersectionExampleScenario.node[27].appl 	NumberOfCollisions 	0
scalar IntersectionExampleScenario.node[27].nic.phy80211p 	busyTime 	0
scalar IntersectionExampleScenario.node[27].nic.mac1609_4 	ReceivedUnicastPackets 	0
scalar IntersectionExampleScenario.node[27].nic.mac1609_4 	ReceivedBroadcasts 	0
scalar IntersectionExampleScenario.node[27].nic.mac1609_4 	SentPackets 	0
scalar IntersectionExampleScenario.node[27].nic.mac1609_4 	SNIRLostPackets 	0
scalar IntersectionExampleScenario.node[27].nic.mac1609_4 	RXTXLostPackets 	0
scalar IntersectionExampleScenario.node[27].nic.mac1609_4 	TotalLostPackets 	0
scalar IntersectionExampleScenario.node[27].nic.mac1609_4 	DroppedPacketsInMac 	0
scalar IntersectionExampleScenario.node[27].nic.mac1609_4 	TooLittleTime 	0
scalar IntersectionExampleScenario.node[27].nic.mac1609_4 	TimesIntoBackoff 	0
scalar IntersectionExampleScenario.node[27].nic.mac1609_4 	SlotsBackoff 	0
scalar IntersectionExampleScenario.node[27].nic.mac1609_4 	NumInternalContention 	0
scalar IntersectionExampleScenario.node[27].nic.mac1609_4 	totalBusyTime 	0
scalar IntersectionExampleScenario.node[27].veinsmobility 	startTime 	79.25
scalar IntersectionExampleScenario.node[27].veinsmobility 	totalTime 	40
scalar IntersectionExampleScenario.node[27].veinsmobility 	stopTime 	119.5
scalar IntersectionExampleScenario.node[27].veinsmobility 	minSpeed 	5.6500000953674
scalar IntersectionExampleScenario.node[27].veinsmobility 	maxSpeed 	15.073251724243
scalar IntersectionExampleScenario.node[27].veinsmobility 	totalDistance 	550.24137862748
scalar IntersectionExampleScenario.node[27].veinsmobility 	totalCO2Emission 	120.96439091636
scalar IntersectionExampleScenario.node[20].appl 	VehicleRemoved 	0
scalar IntersectionExampleScenario.node[20].appl 	ArrivedAtDest 	1
scalar IntersectionExampleScenario.node[20].appl 	IntersectionEnterTime 	55
scalar IntersectionExampleScenario.node[20].appl 	IntersectionExitTime 	110.59249393965
scalar IntersectionExampleScenario.node[20].appl 	NumberOfCollisions 	0
scalar IntersectionExampleScenario.node[20].nic.phy80211p 	busyTime 	0
scalar IntersectionExampleScenario.node[20].nic.mac1609_4 	ReceivedUnicastPackets 	0
scalar IntersectionExampleScenario.node[20].nic.mac1609_4 	ReceivedBroadcasts 	0
scalar IntersectionExampleScenario.node[20].nic.mac1609_4 	SentPackets 	0
scalar IntersectionExampleScenario.node[20].nic.mac1609_4 	SNIRLostPackets 	0
scalar IntersectionExampleScenario.node[20].nic.mac1609_4 	RXTXLostPackets 	0
scalar IntersectionExampleScenario.node[20].nic.mac1609_4 	TotalLostPackets 	0
scalar IntersectionExampleScenario.node[20].nic.mac1609_4 	DroppedPacketsInMac 	0
scalar IntersectionExampleScenario.node[20].nic.mac1609_4 	TooLittleTime 	0
scalar IntersectionExampleScenario.node[20].nic.mac1609_4 	TimesIntoBackoff 	0
scalar IntersectionExampleScenario.node[20].nic.mac1609_4 	SlotsBackoff 	0
scalar IntersectionExampleScenario.node[20].nic.mac1609_4 	NumInternalContention 	0
scalar IntersectionExampleScenario.node[20].nic.mac1609_4 	totalBusyTime 	0
scalar IntersectionExampleScenario.node[20].veinsmobility 	startTime 	55
scalar IntersectionExampleScenario.node[20].veinsmobility 	totalTime 	72.5
scalar IntersectionExampleScenario.node[20].veinsmobility 	stopTime 	127.75
scalar IntersectionExampleScenario.node[20].veinsmobility 	minSpeed 	0
scalar IntersectionExampleScenario.node[20].veinsmobility 	maxSpeed 	15.25
scalar IntersectionExampleScenario.node[20].veinsmobility 	totalDistance 	564.23869992644
scalar IntersectionExampleScenario.node[20].veinsmobility 	totalCO2Emission 	163.85809470447
scalar IntersectionExampleScenario.node[24].appl 	VehicleRemoved 	0
scalar IntersectionExampleScenario.node[24].appl 	ArrivedAtDest 	1
scalar IntersectionExampleScenario.node[24].appl 	IntersectionEnterTime 	71
scalar IntersectionExampleScenario.node[24].appl 	IntersectionExitTime 	113.08233654365
scalar IntersectionExampleScenario.node[24].appl 	NumberOfCollisions 	0
scalar IntersectionExampleScenario.node[24].nic.phy80211p 	busyTime 	0
scalar IntersectionExampleScenario.node[24].nic.mac1609_4 	ReceivedUnicastPackets 	0
scalar IntersectionExampleScenario.node[24].nic.mac1609_4 	ReceivedBroadcasts 	0
scalar IntersectionExampleScenario.node[24].nic.mac1609_4 	SentPackets 	0
scalar IntersectionExampleScenario.node[24].nic.mac1609_4 	SNIRLostPackets 	0
scalar IntersectionExampleScenario.node[24].nic.mac1609_4 	RXTXLostPackets 	0
scalar IntersectionExampleScenario.node[24].nic.mac1609_4 	TotalLostPackets 	0
scalar IntersectionExampleScenario.node[24].nic.mac1609_4 	DroppedPacketsInMac 	0
scalar IntersectionExampleScenario.node[24].nic.mac1609_4 	TooLittleTime 	0
scalar IntersectionExampleScenario.node[24].nic.mac1609_4 	TimesIntoBackoff 	0
scalar IntersectionExampleScenario.node[24].nic.mac1609_4 	SlotsBackoff 	0
scalar IntersectionExampleScenario.node[24].nic.mac1609_4 	NumInternalContention 	0
scalar IntersectionExampleScenario.node[24].nic.mac1609_4 	totalBusyTime 	0
scalar IntersectionExampleScenario.node[24].veinsmobility 	startTime 	71
scalar IntersectionExampleScenario.node[24].veinsmobility 	totalTime 	59.25
scalar IntersectionExampleScenario.node[24].veinsmobility 	stopTime 	130.5
scalar IntersectionExampleScenario.node[24].veinsmobility 	minSpeed 	0
scalar IntersectionExampleScenario.node[24].veinsmobility 	maxSpeed 	15.159792900085
scalar IntersectionExampleScenario.node[24].veinsmobility 	totalDistance 	544.65989255275
scalar IntersectionExampleScenario.node[24].veinsmobility 	totalCO2Emission 	144.01002949713
scalar IntersectionExampleScenario.node[25].appl 	VehicleRemoved 	0
scalar IntersectionExampleScenario.node[25].appl 	ArrivedAtDest 	1
scalar IntersectionExampleScenario.node[25].appl 	IntersectionEnterTime 	72
scalar IntersectionExampleScenario.node[25].appl 	IntersectionExitTime 	124.60561731551
scalar IntersectionExampleScenario.node[25].appl 	NumberOfCollisions 	0
scalar IntersectionExampleScenario.node[25].nic.phy80211p 	busyTime 	0
scalar IntersectionExampleScenario.node[25].nic.mac1609_4 	ReceivedUnicastPackets 	0
scalar IntersectionExampleScenario.node[25].nic.mac1609_4 	ReceivedBroadcasts 	0
scalar IntersectionExampleScenario.node[25].nic.mac1609_4 	SentPackets 	0
scalar IntersectionExampleScenario.node[25].nic.mac1609_4 	SNIRLostPackets 	0
scalar IntersectionExampleScenario.node[25].nic.mac1609_4 	RXTXLostPackets 	0
scalar IntersectionExampleScenario.node[25].nic.mac1609_4 	TotalLostPackets 	0
scalar IntersectionExampleScenario.node[25].nic.mac1609_4 	DroppedPacketsInMac 	0
scalar IntersectionExampleScenario.node[25].nic.mac1609_4 	TooLittleTime 	0
scalar IntersectionExampleScenario.node[25].nic.mac1609_4 	TimesIntoBackoff 	0
scalar IntersectionExampleScenario.node[25].nic.mac1609_4 	SlotsBackoff 	0
scalar IntersectionExampleScenario.node[25].nic.mac1609_4 	NumInternalContention 	0
scalar IntersectionExampleScenario.node[25].nic.mac1609_4 	totalBusyTime 	0
scalar IntersectionExampleScenario.node[25].veinsmobility 	startTime 	72
scalar IntersectionExampleScenario.node[25].veinsmobility 	totalTime 	69.5
scalar IntersectionExampleScenario.node[25].veinsmobility 	stopTime 	141.75
scalar IntersectionExampleScenario.node[25].veinsmobility 	minSpeed 	0
scalar IntersectionExampleScenario.node[25].veinsmobility 	maxSpeed 	15.25
scalar IntersectionExampleScenario.node[25].veinsmobility 	totalDistance 	544.46383572966
scalar IntersectionExampleScenario.node[25].veinsmobility 	totalCO2Emission 	158.45876034407
scalar IntersectionExampleScenario.node[26].appl 	VehicleRemoved 	0
scalar IntersectionExampleScenario.node[26].appl 	ArrivedAtDest 	1
scalar IntersectionExampleScenario.node[26].appl 	IntersectionEnterTime 	79
scalar IntersectionExampleScenario.node[26].appl 	IntersectionExitTime 	126.28762239628
scalar IntersectionExampleScenario.node[26].appl 	NumberOfCollisions 	0
scalar IntersectionExampleScenario.node[26].nic.phy80211p 	busyTime 	0
scalar IntersectionExampleScenario.node[26].nic.mac1609_4 	ReceivedUnicastPackets 	0
scalar IntersectionExampleScenario.node[26].nic.mac1609_4 	ReceivedBroadcasts 	0
scalar IntersectionExampleScenario.node[26].nic.mac1609_4 	SentPackets 	0
scalar IntersectionExampleScenario.node[26].nic.mac1609_4 	SNIRLostPackets 	0
scalar IntersectionExampleScenario.node[26].nic.mac1609_4 	RXTXLostPackets 	0
scalar IntersectionExampleScenario.node[26].nic.mac1609_4 	TotalLostPackets 	0
scalar IntersectionExampleScenario.node[26].nic.mac1609_4 	DroppedPacketsInMac 	0
scalar IntersectionExampleScenario.node[26].nic.mac1609_4 	TooLittleTime 	0
scalar IntersectionExampleScenario.node[26].nic.mac1609_4 	TimesIntoBackoff 	0
scalar IntersectionExampleScenario.node[26].nic.mac1609_4 	SlotsBackoff 	0
scalar IntersectionExampleScenario.node[26].nic.mac1609_4 	NumInternalContention 	0
scalar IntersectionExampleScenario.node[26].nic.mac1609_4 	totalBusyTime 	0
scalar IntersectionExampleScenario.node[26].veinsmobility 	startTime 	79
scalar IntersectionExampleScenario.node[26].veinsmobility 	totalTime 	63.5
scalar IntersectionExampleScenario.node[26].veinsmobility 	stopTime 	142.75
scalar IntersectionExampleScenario.node[26].veinsmobility 	minSpeed 	0
scalar IntersectionExampleScenario.node[26].veinsmobility 	maxSpeed 	15.64999961853
scalar IntersectionExampleScenario.node[26].veinsmobility 	totalDistance 	549.09461107729
scalar IntersectionExampleScenario.node[26].veinsmobility 	totalCO2Emission 	153.56747962649
scalar IntersectionExampleScenario.node[28].appl 	VehicleRemoved 	0
scalar IntersectionExampleScenario.node[28].appl 	ArrivedAtDest 	1
scalar IntersectionExampleScenario.node[28].appl 	IntersectionEnterTime 	81.75
scalar IntersectionExampleScenario.node[28].appl 	IntersectionExitTime 	128.57837472705
scalar IntersectionExampleScenario.node[28].appl 	NumberOfCollisions 	0
scalar IntersectionExampleScenario.node[28].nic.phy80211p 	busyTime 	0
scalar IntersectionExampleScenario.node[28].nic.mac1609_4 	ReceivedUnicastPackets 	0
scalar IntersectionExampleScenario.node[28].nic.mac1609_4 	ReceivedBroadcasts 	0
scalar IntersectionExampleScenario.node[28].nic.mac1609_4 	SentPackets 	0
scalar IntersectionExampleScenario.node[28].nic.mac1609_4 	SNIRLostPackets 	0
scalar IntersectionExampleScenario.node[28].nic.mac1609_4 	RXTXLostPackets 	0
scalar IntersectionExampleScenario.node[28].nic.mac1609_4 	TotalLostPackets 	0
scalar IntersectionExampleScenario.node[28].nic.mac1609_4 	DroppedPacketsInMac 	0
scalar IntersectionExampleScenario.node[28].nic.mac1609_4 	TooLittleTime 	0
scalar IntersectionExampleScenario.node[28].nic.mac1609_4 	TimesIntoBackoff 	0
scalar IntersectionExampleScenario.node[28].nic.mac1609_4 	SlotsBackoff 	0
scalar IntersectionExampleScenario.node[28].nic.mac1609_4 	NumInternalContention 	0
scalar IntersectionExampleScenario.node[28].nic.mac1609_4 	totalBusyTime 	0
scalar IntersectionExampleScenario.node[28].veinsmobility 	startTime 	81.75
scalar IntersectionExampleScenario.node[28].veinsmobility 	totalTime 	62.75
scalar IntersectionExampleScenario.node[28].veinsmobility 	stopTime 	144.75
scalar IntersectionExampleScenario.node[28].veinsmobility 	minSpeed 	0
scalar IntersectionExampleScenario.node[28].veinsmobility 	maxSpeed 	15.652376174927
scalar IntersectionExampleScenario.node[28].veinsmobility 	totalDistance 	564.57419056911
scalar IntersectionExampleScenario.node[28].veinsmobility 	totalCO2Emission 	157.67231310536
scalar IntersectionExampleScenario.node[30].appl 	VehicleRemoved 	0
scalar IntersectionExampleScenario.node[30].appl 	ArrivedAtDest 	1
scalar IntersectionExampleScenario.node[30].appl 	IntersectionEnterTime 	87.25
scalar IntersectionExampleScenario.node[30].appl 	IntersectionExitTime 	131.02172185111
scalar IntersectionExampleScenario.node[30].appl 	NumberOfCollisions 	0
scalar IntersectionExampleScenario.node[30].nic.phy80211p 	busyTime 	0
scalar IntersectionExampleScenario.node[30].nic.mac1609_4 	ReceivedUnicastPackets 	0
scalar IntersectionExampleScenario.node[30].nic.mac1609_4 	ReceivedBroadcasts 	0
scalar IntersectionExampleScenario.node[30].nic.mac1609_4 	SentPackets 	0
scalar IntersectionExampleScenario.node[30].nic.mac1609_4 	SNIRLostPackets 	0
scalar IntersectionExampleScenario.node[30].nic.mac1609_4 	RXTXLostPackets 	0
scalar IntersectionExampleScenario.node[30].nic.mac1609_4 	TotalLostPackets 	0
scalar IntersectionExampleScenario.node[30].nic.mac1609_4 	DroppedPacketsInMac 	0
scalar IntersectionExampleScenario.node[30].nic.mac1609_4 	TooLittleTime 	0
scalar IntersectionExampleScenario.node[30].nic.mac1609_4 	TimesIntoBackoff 	0
scalar IntersectionExampleScenario.node[30].nic.mac1609_4 	SlotsBackoff 	0
scalar IntersectionExampleScenario.node[30].nic.mac1609_4 	NumInternalContention 	0
scalar IntersectionExampleScenario.node[30].nic.mac1609_4 	totalBusyTime 	0
scalar IntersectionExampleScenario.node[30].veinsmobility 	startTime 	87.25
scalar IntersectionExampleScenario.node[30].veinsmobility 	totalTime 	60.25
scalar IntersectionExampleScenario.node[30].veinsmobility 	stopTime 	147.75
scalar IntersectionExampleScenario.node[30].veinsmobility 	minSpeed 	0
scalar IntersectionExampleScenario.node[30].veinsmobility 	maxSpeed 	15.690011978149
scalar IntersectionExampleScenario.node[30].veinsmobility 	totalDistance 	546.20069660419
scalar IntersectionExampleScenario.node[30].veinsmobility 	totalCO2Emission 	153.42946298207
scalar IntersectionExampleScenario.node[35].appl 	VehicleRemoved 	0
scalar IntersectionExampleScenario.node[35].appl 	ArrivedAtDest 	1
scalar IntersectionExampleScenario.node[35].appl 	IntersectionEnterTime 	104.25
scalar IntersectionExampleScenario.node[35].appl 	IntersectionExitTime 	133.01984681381
scalar IntersectionExampleScenario.node[35].appl 	NumberOfCollisions 	0
scalar IntersectionExampleScenario.node[35].nic.phy80211p 	busyTime 	0
scalar IntersectionExampleScenario.node[35].nic.mac1609_4 	ReceivedUnicastPackets 	0
scalar IntersectionExampleScenario.node[35].nic.mac1609_4 	ReceivedBroadcasts 	0
scalar IntersectionExampleScenario.node[35].nic.mac1609_4 	SentPackets 	0
scalar IntersectionExampleScenario.node[35].nic.mac1609_4 	SNIRLostPackets 	0
scalar IntersectionExampleScenario.node[35].nic.mac1609_4 	RXTXLostPackets 	0
scalar IntersectionExampleScenario.node[35].nic.mac1609_4 	TotalLostPackets 	0
scalar IntersectionExampleScenario.node[35].nic.mac1609_4 	DroppedPacketsInMac 	0
scalar IntersectionExampleScenario.node[35].nic.mac1609_4 	TooLittleTime 	0
scalar IntersectionExampleScenario.node[35].nic.mac1609_4 	TimesIntoBackoff 	0
scalar IntersectionExampleScenario.node[35].nic.mac1609_4 	SlotsBackoff 	0
scalar IntersectionExampleScenario.node[35].nic.mac1609_4 	NumInternalContention 	0
scalar IntersectionExampleScenario.node[35].nic.mac1609_4 	totalBusyTime 	0
scalar IntersectionExampleScenario.node[35].veinsmobility 	startTime 	104.25
scalar IntersectionExampleScenario.node[35].veinsmobility 	totalTime 	45
scalar IntersectionExampleScenario.node[35].veinsmobility 	stopTime 	149.5
scalar IntersectionExampleScenario.node[35].veinsmobility 	minSpeed 	5.1010837554932
scalar IntersectionExampleScenario.node[35].veinsmobility 	maxSpeed 	15.64999961853
scalar IntersectionExampleScenario.node[35].veinsmobility 	totalDistance 	549.26153354512
scalar IntersectionExampleScenario.node[35].veinsmobility 	totalCO2Emission 	140.4729764327
scalar IntersectionExampleScenario.node[36].appl 	VehicleRemoved 	0
scalar IntersectionExampleScenario.node[36].appl 	ArrivedAtDest 	1
scalar IntersectionExampleScenario.node[36].appl 	IntersectionEnterTime 	106.75
scalar IntersectionExampleScenario.node[36].appl 	IntersectionExitTime 	135.25002153157
scalar IntersectionExampleScenario.node[36].appl 	NumberOfCollisions 	0
scalar IntersectionExampleScenario.node[36].nic.phy80211p 	busyTime 	0
scalar IntersectionExampleScenario.node[36].nic.mac1609_4 	ReceivedUnicastPackets 	0
scalar IntersectionExampleScenario.node[36].nic.mac1609_4 	ReceivedBroadcasts 	0
scalar IntersectionExampleScenario.node[36].nic.mac1609_4 	SentPackets 	0
scalar IntersectionExampleScenario.node[36].nic.mac1609_4 	SNIRLostPackets 	0
scalar IntersectionExampleScenario.node[36].nic.mac1609_4 	RXTXLostPackets 	0
scalar IntersectionExampleScenario.node[36].nic.mac1609_4 	TotalLostPackets 	0
scalar IntersectionExampleScenario.node[36].nic.mac1609_4 	DroppedPacketsInMac 	0
scalar IntersectionExampleScenario.node[36].nic.mac1609_4 	TooLittleTime 	0
scalar IntersectionExampleScenario.node[36].nic.mac1609_4 	TimesIntoBackoff 	0
scalar IntersectionExampleScenario.node[36].nic.mac1609_4 	SlotsBackoff 	0
scalar IntersectionExampleScenario.node[36].nic.mac1609_4 	NumInternalContention 	0
scalar IntersectionExampleScenario.node[36].nic.mac1609_4 	totalBusyTime 	0
scalar IntersectionExampleScenario.node[36].veinsmobility 	startTime 	106.75
scalar IntersectionExampleScenario.node[36].veinsmobility 	totalTime 	45.25
scalar IntersectionExampleScenario.node[36].veinsmobility 	stopTime 	152.25
scalar IntersectionExampleScenario.node[36].veinsmobility 	minSpeed 	5.6500000953674
scalar IntersectionExampleScenario.node[36].veinsmobility 	maxSpeed 	15.64999961853
scalar IntersectionExampleScenario.node[36].veinsmobility 	totalDistance 	560.56574200687
scalar IntersectionExampleScenario.node[36].veinsmobility 	totalCO2Emission 	136.83071997581
scalar IntersectionExampleScenario.node[37].appl 	VehicleRemoved 	0
scalar IntersectionExampleScenario.node[37].appl 	ArrivedAtDest 	1
scalar IntersectionExampleScenario.node[37].appl 	IntersectionEnterTime 	110.5
scalar IntersectionExampleScenario.node[37].appl 	IntersectionExitTime 	137.29815875343
scalar IntersectionExampleScenario.node[37].appl 	NumberOfCollisions 	0
scalar IntersectionExampleScenario.node[37].nic.phy80211p 	busyTime 	0
scalar IntersectionExampleScenario.node[37].nic.mac1609_4 	ReceivedUnicastPackets 	0
scalar IntersectionExampleScenario.node[37].nic.mac1609_4 	ReceivedBroadcasts 	0
scalar IntersectionExampleScenario.node[37].nic.mac1609_4 	SentPackets 	0
scalar IntersectionExampleScenario.node[37].nic.mac1609_4 	SNIRLostPackets 	0
scalar IntersectionExampleScenario.node[37].nic.mac1609_4 	RXTXLostPackets 	0
scalar IntersectionExampleScenario.node[37].nic.mac1609_4 	TotalLostPackets 	0
scalar IntersectionExampleScenario.node[37].nic.mac1609_4 	DroppedPacketsInMac 	0
scalar IntersectionExampleScenario.node[37].nic.mac1609_4 	TooLittleTime 	0
scalar IntersectionExampleScenario.node[37].nic.mac1609_4 	TimesIntoBackoff 	0
scalar IntersectionExampleScenario.node[37].nic.mac1609_4 	SlotsBackoff 	0
scalar IntersectionExampleScenario.node[37].nic.mac1609_4 	NumInternalContention 	0
scalar IntersectionExampleScenario.node[37].nic.mac1609_4 	totalBusyTime 	0
scalar IntersectionExampleScenario.node[37].veinsmobility 	startTime 	110.5
scalar IntersectionExampleScenario.node[37].veinsmobility 	totalTime 	43.25
scalar IntersectionExampleScenario.node[37].veinsmobility 	stopTime 	154
scalar IntersectionExampleScenario.node[37].veinsmobility 	minSpeed 	5.6500000953674
scalar IntersectionExampleScenario.node[37].veinsmobility 	maxSpeed 	15.375
scalar IntersectionExampleScenario.node[37].veinsmobility 	totalDistance 	565.46233608318
scalar IntersectionExampleScenario.node[37].veinsmobility 	totalCO2Emission 	124.50119398802
scalar IntersectionExampleScenario.node[32].appl 	VehicleRemoved 	0
scalar IntersectionExampleScenario.node[32].appl 	ArrivedAtDest 	1
scalar IntersectionExampleScenario.node[32].appl 	IntersectionEnterTime 	96.5
scalar IntersectionExampleScenario.node[32].appl 	IntersectionExitTime 	138.61399681287
scalar IntersectionExampleScenario.node[32].appl 	NumberOfCollisions 	0
scalar IntersectionExampleScenario.node[32].nic.phy80211p 	busyTime 	0
scalar IntersectionExampleScenario.node[32].nic.mac1609_4 	ReceivedUnicastPackets 	0
scalar IntersectionExampleScenario.node[32].nic.mac1609_4 	ReceivedBroadcasts 	0
scalar IntersectionExampleScenario.node[32].nic.mac1609_4 	SentPackets 	0
scalar IntersectionExampleScenario.node[32].nic.mac1609_4 	SNIRLostPackets 	0
scalar IntersectionExampleScenario.node[32].nic.mac1609_4 	RXTXLostPackets 	0
scalar IntersectionExampleScenario.node[32].nic.mac1609_4 	TotalLostPackets 	0
scalar IntersectionExampleScenario.node[32].nic.mac1609_4 	DroppedPacketsInMac 	0
scalar IntersectionExampleScenario.node[32].nic.mac1609_4 	TooLittleTime 	0
scalar IntersectionExampleScenario.node[32].nic.mac1609_4 	TimesIntoBackoff 	0
scalar IntersectionExampleScenario.node[32].nic.mac1609_4 	SlotsBackoff 	0
scalar IntersectionExampleScenario.node[32].nic.mac1609_4 	NumInternalContention 	0
scalar IntersectionExampleScenario.node[32].nic.mac1609_4 	totalBusyTime 	0
scalar IntersectionExampleScenario.node[32].veinsmobility 	startTime 	96.5
scalar IntersectionExampleScenario.node[32].veinsmobility 	totalTime 	59
scalar IntersectionExampleScenario.node[32].veinsmobility 	stopTime 	155.75
scalar IntersectionExampleScenario.node[32].veinsmobility 	minSpeed 	0
scalar IntersectionExampleScenario.node[32].veinsmobility 	maxSpeed 	15.25
scalar IntersectionExampleScenario.node[32].veinsmobility 	totalDistance 	542.8470144406
scalar IntersectionExampleScenario.node[32].veinsmobility 	totalCO2Emission 	147.40029590827
scalar IntersectionExampleScenario.node[29].appl 	VehicleRemoved 	0
scalar IntersectionExampleScenario.node[29].appl 	ArrivedAtDest 	1
scalar IntersectionExampleScenario.node[29].appl 	IntersectionEnterTime 	87
scalar IntersectionExampleScenario.node[29].appl 	IntersectionExitTime 	138.55193795872
scalar IntersectionExampleScenario.node[29].appl 	NumberOfCollisions 	0
scalar IntersectionExampleScenario.node[29].nic.phy80211p 	busyTime 	0
scalar IntersectionExampleScenario.node[29].nic.mac1609_4 	ReceivedUnicastPackets 	0
scalar IntersectionExampleScenario.node[29].nic.mac1609_4 	ReceivedBroadcasts 	0
scalar IntersectionExampleScenario.node[29].nic.mac1609_4 	SentPackets 	0
scalar IntersectionExampleScenario.node[29].nic.mac1609_4 	SNIRLostPackets 	0
scalar IntersectionExampleScenario.node[29].nic.mac1609_4 	RXTXLostPackets 	0
scalar IntersectionExampleScenario.node[29].nic.mac1609_4 	TotalLostPackets 	0
scalar IntersectionExampleScenario.node[29].nic.mac1609_4 	DroppedPacketsInMac 	0
scalar IntersectionExampleScenario.node[29].nic.mac1609_4 	TooLittleTime 	0
scalar IntersectionExampleScenario.node[29].nic.mac1609_4 	TimesIntoBackoff 	0
scalar IntersectionExampleScenario.node[29].nic.mac1609_4 	SlotsBackoff 	0
scalar IntersectionExampleScenario.node[29].nic.mac1609_4 	NumInternalContention 	0
scalar IntersectionExampleScenario.node[29].nic.mac1609_4 	totalBusyTime 	0
scalar IntersectionExampleScenario.node[29].veinsmobility 	startTime 	87
scalar IntersectionExampleScenario.node[29].veinsmobility 	totalTime 	69.25
scalar IntersectionExampleScenario.node[29].veinsmobility 	stopTime 	156.5
scalar IntersectionExampleScenario.node[29].veinsmobility 	minSpeed 	0
scalar IntersectionExampleScenario.node[29].veinsmobility 	maxSpeed 	14.625
scalar IntersectionExampleScenario.node[29].veinsmobility 	totalDistance 	545.2006750241
scalar IntersectionExampleScenario.node[29].veinsmobility 	totalCO2Emission 	153.40564049366
scalar IntersectionExampleScenario.node[31].appl 	VehicleRemoved 	0
scalar IntersectionExampleScenario.node[31].appl 	ArrivedAtDest 	1
scalar IntersectionExampleScenario.node[31].appl 	IntersectionEnterTime 	94
scalar IntersectionExampleScenario.node[31].appl 	IntersectionExitTime 	140.81961725041
scalar IntersectionExampleScenario.node[31].appl 	NumberOfCollisions 	0
scalar IntersectionExampleScenario.node[31].nic.phy80211p 	busyTime 	0
scalar IntersectionExampleScenario.node[31].nic.mac1609_4 	ReceivedUnicastPackets 	0
scalar IntersectionExampleScenario.node[31].nic.mac1609_4 	ReceivedBroadcasts 	0
scalar IntersectionExampleScenario.node[31].nic.mac1609_4 	SentPackets 	0
scalar IntersectionExampleScenario.node[31].nic.mac1609_4 	SNIRLostPackets 	0
scalar IntersectionExampleScenario.node[31].nic.mac1609_4 	RXTXLostPackets 	0
scalar IntersectionExampleScenario.node[31].nic.mac1609_4 	TotalLostPackets 	0
scalar IntersectionExampleScenario.node[31].nic.mac1609_4 	DroppedPacketsInMac 	0
scalar IntersectionExampleScenario.node[31].nic.mac1609_4 	TooLittleTime 	0
scalar IntersectionExampleScenario.node[31].nic.mac1609_4 	TimesIntoBackoff 	0
scalar IntersectionExampleScenario.node[31].nic.mac1609_4 	SlotsBackoff 	0
scalar IntersectionExampleScenario.node[31].nic.mac1609_4 	NumInternalContention 	0
scalar IntersectionExampleScenario.node[31].nic.mac1609_4 	totalBusyTime 	0
scalar IntersectionExampleScenario.node[31].veinsmobility 	startTime 	94
scalar IntersectionExampleScenario.node[31].veinsmobility 	totalTime 	62.75
scalar IntersectionExampleScenario.node[31].veinsmobility 	stopTime 	157
scalar IntersectionExampleScenario.node[31].veinsmobility 	minSpeed 	0
scalar IntersectionExampleScenario.node[31].veinsmobility 	maxSpeed 	16.196804046631
scalar IntersectionExampleScenario.node[31].veinsmobility 	totalDistance 	550.22470367506
scalar IntersectionExampleScenario.node[31].veinsmobility 	totalCO2Emission 	162.0185634607
scalar IntersectionExampleScenario.node[33].appl 	VehicleRemoved 	0
scalar IntersectionExampleScenario.node[33].appl 	ArrivedAtDest 	1
scalar IntersectionExampleScenario.node[33].appl 	IntersectionEnterTime 	100.25
scalar IntersectionExampleScenario.node[33].appl 	IntersectionExitTime 	141.09292056764
scalar IntersectionExampleScenario.node[33].appl 	NumberOfCollisions 	0
scalar IntersectionExampleScenario.node[33].nic.phy80211p 	busyTime 	0
scalar IntersectionExampleScenario.node[33].nic.mac1609_4 	ReceivedUnicastPackets 	0
scalar IntersectionExampleScenario.node[33].nic.mac1609_4 	ReceivedBroadcasts 	0
scalar IntersectionExampleScenario.node[33].nic.mac1609_4 	SentPackets 	0
scalar IntersectionExampleScenario.node[33].nic.mac1609_4 	SNIRLostPackets 	0
scalar IntersectionExampleScenario.node[33].nic.mac1609_4 	RXTXLostPackets 	0
scalar IntersectionExampleScenario.node[33].nic.mac1609_4 	TotalLostPackets 	0
scalar IntersectionExampleScenario.node[33].nic.mac1609_4 	DroppedPacketsInMac 	0
scalar IntersectionExampleScenario.node[33].nic.mac1609_4 	TooLittleTime 	0
scalar IntersectionExampleScenario.node[33].nic.mac1609_4 	TimesIntoBackoff 	0
scalar IntersectionExampleScenario.node[33].nic.mac1609_4 	SlotsBackoff 	0
scalar IntersectionExampleScenario.node[33].nic.mac1609_4 	NumInternalContention 	0
scalar IntersectionExampleScenario.node[33].nic.mac1609_4 	totalBusyTime 	0
scalar IntersectionExampleScenario.node[33].veinsmobility 	startTime 	100.25
scalar IntersectionExampleScenario.node[33].veinsmobility 	totalTime 	57.5
scalar IntersectionExampleScenario.node[33].veinsmobility 	stopTime 	158
scalar IntersectionExampleScenario.node[33].veinsmobility 	minSpeed 	0
scalar IntersectionExampleScenario.node[33].veinsmobility 	maxSpeed 	15.02499961853
scalar IntersectionExampleScenario.node[33].veinsmobility 	totalDistance 	558.92030523258
scalar IntersectionExampleScenario.node[33].veinsmobility 	totalCO2Emission 	147.82702341436
scalar IntersectionExampleScenario.node[34].appl 	VehicleRemoved 	0
scalar IntersectionExampleScenario.node[34].appl 	ArrivedAtDest 	1
scalar IntersectionExampleScenario.node[34].appl 	IntersectionEnterTime 	102.5
scalar IntersectionExampleScenario.node[34].appl 	IntersectionExitTime 	143.27326086929
scalar IntersectionExampleScenario.node[34].appl 	NumberOfCollisions 	0
scalar IntersectionExampleScenario.node[34].nic.phy80211p 	busyTime 	0
scalar IntersectionExampleScenario.node[34].nic.mac1609_4 	ReceivedUnicastPackets 	0
scalar IntersectionExampleScenario.node[34].nic.mac1609_4 	ReceivedBroadcasts 	0
scalar IntersectionExampleScenario.node[34].nic.mac1609_4 	SentPackets 	0
scalar IntersectionExampleScenario.node[34].nic.mac1609_4 	SNIRLostPackets 	0
scalar IntersectionExampleScenario.node[34].nic.mac1609_4 	RXTXLostPackets 	0
scalar IntersectionExampleScenario.node[34].nic.mac1609_4 	TotalLostPackets 	0
scalar IntersectionExampleScenario.node[34].nic.mac1609_4 	DroppedPacketsInMac 	0
scalar IntersectionExampleScenario.node[34].nic.mac1609_4 	TooLittleTime 	0
scalar IntersectionExampleScenario.node[34].nic.mac1609_4 	TimesIntoBackoff 	0
scalar IntersectionExampleScenario.node[34].nic.mac1609_4 	SlotsBackoff 	0
scalar IntersectionExampleScenario.node[34].nic.mac1609_4 	NumInternalContention 	0
scalar IntersectionExampleScenario.node[34].nic.mac1609_4 	totalBusyTime 	0
scalar IntersectionExampleScenario.node[34].veinsmobility 	startTime 	102.5
scalar IntersectionExampleScenario.node[34].veinsmobility 	totalTime 	57.75
scalar IntersectionExampleScenario.node[34].veinsmobility 	stopTime 	160.5
scalar IntersectionExampleScenario.node[34].veinsmobility 	minSpeed 	0
scalar IntersectionExampleScenario.node[34].veinsmobility 	maxSpeed 	15.02499961853
scalar IntersectionExampleScenario.node[34].veinsmobility 	totalDistance 	572.2081480799
scalar IntersectionExampleScenario.node[34].veinsmobility 	totalCO2Emission 	144.17613897453
scalar IntersectionExampleScenario.node[38].appl 	VehicleRemoved 	0
scalar IntersectionExampleScenario.node[38].appl 	ArrivedAtDest 	1
scalar IntersectionExampleScenario.node[38].appl 	IntersectionEnterTime 	114.25
scalar IntersectionExampleScenario.node[38].appl 	IntersectionExitTime 	145.34045059665
scalar IntersectionExampleScenario.node[38].appl 	NumberOfCollisions 	0
scalar IntersectionExampleScenario.node[38].nic.phy80211p 	busyTime 	0
scalar IntersectionExampleScenario.node[38].nic.mac1609_4 	ReceivedUnicastPackets 	0
scalar IntersectionExampleScenario.node[38].nic.mac1609_4 	ReceivedBroadcasts 	0
scalar IntersectionExampleScenario.node[38].nic.mac1609_4 	SentPackets 	0
scalar IntersectionExampleScenario.node[38].nic.mac1609_4 	SNIRLostPackets 	0
scalar IntersectionExampleScenario.node[38].nic.mac1609_4 	RXTXLostPackets 	0
scalar IntersectionExampleScenario.node[38].nic.mac1609_4 	TotalLostPackets 	0
scalar IntersectionExampleScenario.node[38].nic.mac1609_4 	DroppedPacketsInMac 	0
scalar IntersectionExampleScenario.node[38].nic.mac1609_4 	TooLittleTime 	0
scalar IntersectionExampleScenario.node[38].nic.mac1609_4 	TimesIntoBackoff 	0
scalar IntersectionExampleScenario.node[38].nic.mac1609_4 	SlotsBackoff 	0
scalar IntersectionExampleScenario.node[38].nic.mac1609_4 	NumInternalContention 	0
scalar IntersectionExampleScenario.node[38].nic.mac1609_4 	totalBusyTime 	0
scalar IntersectionExampleScenario.node[38].veinsmobility 	startTime 	114.25
scalar IntersectionExampleScenario.node[38].veinsmobility 	totalTime 	47.75
scalar IntersectionExampleScenario.node[38].veinsmobility 	stopTime 	162.25
scalar IntersectionExampleScenario.node[38].veinsmobility 	minSpeed 	3.7845644950867
scalar IntersectionExampleScenario.node[38].veinsmobility 	maxSpeed 	15.02499961853
scalar IntersectionExampleScenario.node[38].veinsmobility 	totalDistance 	552.65186219545
scalar IntersectionExampleScenario.node[38].veinsmobility 	totalCO2Emission 	133.49580092431
scalar IntersectionExampleScenario.node[39].appl 	VehicleRemoved 	0
scalar IntersectionExampleScenario.node[39].appl 	ArrivedAtDest 	1
scalar IntersectionExampleScenario.node[39].appl 	IntersectionEnterTime 	114.25
scalar IntersectionExampleScenario.node[39].appl 	IntersectionExitTime 	156.34309335725
scalar IntersectionExampleScenario.node[39].appl 	NumberOfCollisions 	0
scalar IntersectionExampleScenario.node[39].nic.phy80211p 	busyTime 	0
scalar IntersectionExampleScenario.node[39].nic.mac1609_4 	ReceivedUnicastPackets 	0
scalar IntersectionExampleScenario.node[39].nic.mac1609_4 	ReceivedBroadcasts 	0
scalar IntersectionExampleScenario.node[39].nic.mac1609_4 	SentPackets 	0
scalar IntersectionExampleScenario.node[39].nic.mac1609_4 	SNIRLostPackets 	0
scalar IntersectionExampleScenario.node[39].nic.mac1609_4 	RXTXLostPackets 	0
scalar IntersectionExampleScenario.node[39].nic.mac1609_4 	TotalLostPackets 	0
scalar IntersectionExampleScenario.node[39].nic.mac1609_4 	DroppedPacketsInMac 	0
scalar IntersectionExampleScenario.node[39].nic.mac1609_4 	TooLittleTime 	0
scalar IntersectionExampleScenario.node[39].nic.mac1609_4 	TimesIntoBackoff 	0
scalar IntersectionExampleScenario.node[39].nic.mac1609_4 	SlotsBackoff 	0
[...]
scalar IntersectionExampleScenario.node[573].veinsmobility 	totalCO2Emission 	70.472700006974
scalar IntersectionExampleScenario.node[574].appl 	VehicleRemoved 	0
scalar IntersectionExampleScenario.node[574].appl 	ArrivedAtDest 	0
scalar IntersectionExampleScenario.node[574].appl 	IntersectionEnterTime 	1782.25
scalar IntersectionExampleScenario.node[574].appl 	IntersectionExitTime 	-1
scalar IntersectionExampleScenario.node[574].appl 	NumberOfCollisions 	0
scalar IntersectionExampleScenario.node[574].nic.phy80211p 	busyTime 	0
scalar IntersectionExampleScenario.node[574].nic.mac1609_4 	ReceivedUnicastPackets 	0
scalar IntersectionExampleScenario.node[574].nic.mac1609_4 	ReceivedBroadcasts 	0
scalar IntersectionExampleScenario.node[574].nic.mac1609_4 	SentPackets 	0
scalar IntersectionExampleScenario.node[574].nic.mac1609_4 	SNIRLostPackets 	0
scalar IntersectionExampleScenario.node[574].nic.mac1609_4 	RXTXLostPackets 	0
scalar IntersectionExampleScenario.node[574].nic.mac1609_4 	TotalLostPackets 	0
scalar IntersectionExampleScenario.node[574].nic.mac1609_4 	DroppedPacketsInMac 	0
scalar IntersectionExampleScenario.node[574].nic.mac1609_4 	TooLittleTime 	0
scalar IntersectionExampleScenario.node[574].nic.mac1609_4 	TimesIntoBackoff 	0
scalar IntersectionExampleScenario.node[574].nic.mac1609_4 	SlotsBackoff 	0
scalar IntersectionExampleScenario.node[574].nic.mac1609_4 	NumInternalContention 	0
scalar IntersectionExampleScenario.node[574].nic.mac1609_4 	totalBusyTime 	0
scalar IntersectionExampleScenario.node[574].veinsmobility 	startTime 	1782.25
scalar IntersectionExampleScenario.node[574].veinsmobility 	totalTime 	17.75
scalar IntersectionExampleScenario.node[574].veinsmobility 	stopTime 	1800
scalar IntersectionExampleScenario.node[574].veinsmobility 	minSpeed 	5.6500000953674
scalar IntersectionExampleScenario.node[574].veinsmobility 	maxSpeed 	15.02499961853
scalar IntersectionExampleScenario.node[574].veinsmobility 	totalDistance 	245.02461242676
scalar IntersectionExampleScenario.node[574].veinsmobility 	totalCO2Emission 	59.537008508204
scalar IntersectionExampleScenario.node[575].appl 	VehicleRemoved 	0
scalar IntersectionExampleScenario.node[575].appl 	ArrivedAtDest 	0
scalar IntersectionExampleScenario.node[575].appl 	IntersectionEnterTime 	1786.5
scalar IntersectionExampleScenario.node[575].appl 	IntersectionExitTime 	-1
scalar IntersectionExampleScenario.node[575].appl 	NumberOfCollisions 	0
scalar IntersectionExampleScenario.node[575].nic.phy80211p 	busyTime 	0
scalar IntersectionExampleScenario.node[575].nic.mac1609_4 	ReceivedUnicastPackets 	0
scalar IntersectionExampleScenario.node[575].nic.mac1609_4 	ReceivedBroadcasts 	0
scalar IntersectionExampleScenario.node[575].nic.mac1609_4 	SentPackets 	0
scalar IntersectionExampleScenario.node[575].nic.mac1609_4 	SNIRLostPackets 	0
scalar IntersectionExampleScenario.node[575].nic.mac1609_4 	RXTXLostPackets 	0
scalar IntersectionExampleScenario.node[575].nic.mac1609_4 	TotalLostPackets 	0
scalar IntersectionExampleScenario.node[575].nic.mac1609_4 	DroppedPacketsInMac 	0
scalar IntersectionExampleScenario.node[575].nic.mac1609_4 	TooLittleTime 	0
scalar IntersectionExampleScenario.node[575].nic.mac1609_4 	TimesIntoBackoff 	0
scalar IntersectionExampleScenario.node[575].nic.mac1609_4 	SlotsBackoff 	0
scalar IntersectionExampleScenario.node[575].nic.mac1609_4 	NumInternalContention 	0
scalar IntersectionExampleScenario.node[575].nic.mac1609_4 	totalBusyTime 	0
scalar IntersectionExampleScenario.node[575].veinsmobility 	startTime 	1786.5
scalar IntersectionExampleScenario.node[575].veinsmobility 	totalTime 	13.5
scalar IntersectionExampleScenario.node[575].veinsmobility 	stopTime 	1800
scalar IntersectionExampleScenario.node[575].veinsmobility 	minSpeed 	5.6500000953674
scalar IntersectionExampleScenario.node[575].veinsmobility 	maxSpeed 	15.02499961853
scalar IntersectionExampleScenario.node[575].veinsmobility 	totalDistance 	182.08475494385
scalar IntersectionExampleScenario.node[575].veinsmobility 	totalCO2Emission 	50.661156770669
scalar IntersectionExampleScenario.node[576].appl 	VehicleRemoved 	0
scalar IntersectionExampleScenario.node[576].appl 	ArrivedAtDest 	0
scalar IntersectionExampleScenario.node[576].appl 	IntersectionEnterTime 	1787.5
scalar IntersectionExampleScenario.node[576].appl 	IntersectionExitTime 	-1
scalar IntersectionExampleScenario.node[576].appl 	NumberOfCollisions 	0
scalar IntersectionExampleScenario.node[576].nic.phy80211p 	busyTime 	0
scalar IntersectionExampleScenario.node[576].nic.mac1609_4 	ReceivedUnicastPackets 	0
scalar IntersectionExampleScenario.node[576].nic.mac1609_4 	ReceivedBroadcasts 	0
scalar IntersectionExampleScenario.node[576].nic.mac1609_4 	SentPackets 	0
scalar IntersectionExampleScenario.node[576].nic.mac1609_4 	SNIRLostPackets 	0
scalar IntersectionExampleScenario.node[576].nic.mac1609_4 	RXTXLostPackets 	0
scalar IntersectionExampleScenario.node[576].nic.mac1609_4 	TotalLostPackets 	0
scalar IntersectionExampleScenario.node[576].nic.mac1609_4 	DroppedPacketsInMac 	0
scalar IntersectionExampleScenario.node[576].nic.mac1609_4 	TooLittleTime 	0
scalar IntersectionExampleScenario.node[576].nic.mac1609_4 	TimesIntoBackoff 	0
scalar IntersectionExampleScenario.node[576].nic.mac1609_4 	SlotsBackoff 	0
scalar IntersectionExampleScenario.node[576].nic.mac1609_4 	NumInternalContention 	0
scalar IntersectionExampleScenario.node[576].nic.mac1609_4 	totalBusyTime 	0
scalar IntersectionExampleScenario.node[576].veinsmobility 	startTime 	1787.5
scalar IntersectionExampleScenario.node[576].veinsmobility 	totalTime 	12.5
scalar IntersectionExampleScenario.node[576].veinsmobility 	stopTime 	1800
scalar IntersectionExampleScenario.node[576].veinsmobility 	minSpeed 	5.6500000953674
scalar IntersectionExampleScenario.node[576].veinsmobility 	maxSpeed 	15.673453330994
scalar IntersectionExampleScenario.node[576].veinsmobility 	totalDistance 	172.55173492432
scalar IntersectionExampleScenario.node[576].veinsmobility 	totalCO2Emission 	51.805561640404
scalar IntersectionExampleScenario.node[577].appl 	VehicleRemoved 	0
scalar IntersectionExampleScenario.node[577].appl 	ArrivedAtDest 	0
scalar IntersectionExampleScenario.node[577].appl 	IntersectionEnterTime 	1788.25
scalar IntersectionExampleScenario.node[577].appl 	IntersectionExitTime 	-1
scalar IntersectionExampleScenario.node[577].appl 	NumberOfCollisions 	0
scalar IntersectionExampleScenario.node[577].nic.phy80211p 	busyTime 	0
scalar IntersectionExampleScenario.node[577].nic.mac1609_4 	ReceivedUnicastPackets 	0
scalar IntersectionExampleScenario.node[577].nic.mac1609_4 	ReceivedBroadcasts 	0
scalar IntersectionExampleScenario.node[577].nic.mac1609_4 	SentPackets 	0
scalar IntersectionExampleScenario.node[577].nic.mac1609_4 	SNIRLostPackets 	0
scalar IntersectionExampleScenario.node[577].nic.mac1609_4 	RXTXLostPackets 	0
scalar IntersectionExampleScenario.node[577].nic.mac1609_4 	TotalLostPackets 	0
scalar IntersectionExampleScenario.node[577].nic.mac1609_4 	DroppedPacketsInMac 	0
scalar IntersectionExampleScenario.node[577].nic.mac1609_4 	TooLittleTime 	0
scalar IntersectionExampleScenario.node[577].nic.mac1609_4 	TimesIntoBackoff 	0
scalar IntersectionExampleScenario.node[577].nic.mac1609_4 	SlotsBackoff 	0
scalar IntersectionExampleScenario.node[577].nic.mac1609_4 	NumInternalContention 	0
scalar IntersectionExampleScenario.node[577].nic.mac1609_4 	totalBusyTime 	0
scalar IntersectionExampleScenario.node[577].veinsmobility 	startTime 	1788.25
scalar IntersectionExampleScenario.node[577].veinsmobility 	totalTime 	11.75
scalar IntersectionExampleScenario.node[577].veinsmobility 	stopTime 	1800
scalar IntersectionExampleScenario.node[577].veinsmobility 	minSpeed 	5.6500000953674
scalar IntersectionExampleScenario.node[577].veinsmobility 	maxSpeed 	14.304128646851
scalar IntersectionExampleScenario.node[577].veinsmobility 	totalDistance 	146.76978302002
scalar IntersectionExampleScenario.node[577].veinsmobility 	totalCO2Emission 	43.34877511573
scalar IntersectionExampleScenario.node[578].appl 	VehicleRemoved 	0
scalar IntersectionExampleScenario.node[578].appl 	ArrivedAtDest 	0
scalar IntersectionExampleScenario.node[578].appl 	IntersectionEnterTime 	1790.25
scalar IntersectionExampleScenario.node[578].appl 	IntersectionExitTime 	-1
scalar IntersectionExampleScenario.node[578].appl 	NumberOfCollisions 	0
scalar IntersectionExampleScenario.node[578].nic.phy80211p 	busyTime 	0
scalar IntersectionExampleScenario.node[578].nic.mac1609_4 	ReceivedUnicastPackets 	0
scalar IntersectionExampleScenario.node[578].nic.mac1609_4 	ReceivedBroadcasts 	0
scalar IntersectionExampleScenario.node[578].nic.mac1609_4 	SentPackets 	0
scalar IntersectionExampleScenario.node[578].nic.mac1609_4 	SNIRLostPackets 	0
scalar IntersectionExampleScenario.node[578].nic.mac1609_4 	RXTXLostPackets 	0
scalar IntersectionExampleScenario.node[578].nic.mac1609_4 	TotalLostPackets 	0
scalar IntersectionExampleScenario.node[578].nic.mac1609_4 	DroppedPacketsInMac 	0
scalar IntersectionExampleScenario.node[578].nic.mac1609_4 	TooLittleTime 	0
scalar IntersectionExampleScenario.node[578].nic.mac1609_4 	TimesIntoBackoff 	0
scalar IntersectionExampleScenario.node[578].nic.mac1609_4 	SlotsBackoff 	0
scalar IntersectionExampleScenario.node[578].nic.mac1609_4 	NumInternalContention 	0
scalar IntersectionExampleScenario.node[578].nic.mac1609_4 	totalBusyTime 	0
scalar IntersectionExampleScenario.node[578].veinsmobility 	startTime 	1790.25
scalar IntersectionExampleScenario.node[578].veinsmobility 	totalTime 	9.75
scalar IntersectionExampleScenario.node[578].veinsmobility 	stopTime 	1800
scalar IntersectionExampleScenario.node[578].veinsmobility 	minSpeed 	5.6500000953674
scalar IntersectionExampleScenario.node[578].veinsmobility 	maxSpeed 	15.64999961853
scalar IntersectionExampleScenario.node[578].veinsmobility 	totalDistance 	129.45684814453
scalar IntersectionExampleScenario.node[578].veinsmobility 	totalCO2Emission 	45.261952567988
scalar IntersectionExampleScenario.node[579].appl 	VehicleRemoved 	0
scalar IntersectionExampleScenario.node[579].appl 	ArrivedAtDest 	0
scalar IntersectionExampleScenario.node[579].appl 	IntersectionEnterTime 	1790.75
scalar IntersectionExampleScenario.node[579].appl 	IntersectionExitTime 	-1
scalar IntersectionExampleScenario.node[579].appl 	NumberOfCollisions 	0
scalar IntersectionExampleScenario.node[579].nic.phy80211p 	busyTime 	0
scalar IntersectionExampleScenario.node[579].nic.mac1609_4 	ReceivedUnicastPackets 	0
scalar IntersectionExampleScenario.node[579].nic.mac1609_4 	ReceivedBroadcasts 	0
scalar IntersectionExampleScenario.node[579].nic.mac1609_4 	SentPackets 	0
scalar IntersectionExampleScenario.node[579].nic.mac1609_4 	SNIRLostPackets 	0
scalar IntersectionExampleScenario.node[579].nic.mac1609_4 	RXTXLostPackets 	0
scalar IntersectionExampleScenario.node[579].nic.mac1609_4 	TotalLostPackets 	0
scalar IntersectionExampleScenario.node[579].nic.mac1609_4 	DroppedPacketsInMac 	0
scalar IntersectionExampleScenario.node[579].nic.mac1609_4 	TooLittleTime 	0
scalar IntersectionExampleScenario.node[579].nic.mac1609_4 	TimesIntoBackoff 	0
scalar IntersectionExampleScenario.node[579].nic.mac1609_4 	SlotsBackoff 	0
scalar IntersectionExampleScenario.node[579].nic.mac1609_4 	NumInternalContention 	0
scalar IntersectionExampleScenario.node[579].nic.mac1609_4 	totalBusyTime 	0
scalar IntersectionExampleScenario.node[579].veinsmobility 	startTime 	1790.75
scalar IntersectionExampleScenario.node[579].veinsmobility 	totalTime 	9.25
scalar IntersectionExampleScenario.node[579].veinsmobility 	stopTime 	1800
scalar IntersectionExampleScenario.node[579].veinsmobility 	minSpeed 	5.6500000953674
scalar IntersectionExampleScenario.node[579].veinsmobility 	maxSpeed 	15.02499961853
scalar IntersectionExampleScenario.node[579].veinsmobility 	totalDistance 	118.59698486328
scalar IntersectionExampleScenario.node[579].veinsmobility 	totalCO2Emission 	41.572965057202
scalar IntersectionExampleScenario.node[580].appl 	VehicleRemoved 	0
scalar IntersectionExampleScenario.node[580].appl 	ArrivedAtDest 	0
scalar IntersectionExampleScenario.node[580].appl 	IntersectionEnterTime 	1792.5
scalar IntersectionExampleScenario.node[580].appl 	IntersectionExitTime 	-1
scalar IntersectionExampleScenario.node[580].appl 	NumberOfCollisions 	0
scalar IntersectionExampleScenario.node[580].nic.phy80211p 	busyTime 	0
scalar IntersectionExampleScenario.node[580].nic.mac1609_4 	ReceivedUnicastPackets 	0
scalar IntersectionExampleScenario.node[580].nic.mac1609_4 	ReceivedBroadcasts 	0
scalar IntersectionExampleScenario.node[580].nic.mac1609_4 	SentPackets 	0
scalar IntersectionExampleScenario.node[580].nic.mac1609_4 	SNIRLostPackets 	0
scalar IntersectionExampleScenario.node[580].nic.mac1609_4 	RXTXLostPackets 	0
scalar IntersectionExampleScenario.node[580].nic.mac1609_4 	TotalLostPackets 	0
scalar IntersectionExampleScenario.node[580].nic.mac1609_4 	DroppedPacketsInMac 	0
scalar IntersectionExampleScenario.node[580].nic.mac1609_4 	TooLittleTime 	0
scalar IntersectionExampleScenario.node[580].nic.mac1609_4 	TimesIntoBackoff 	0
scalar IntersectionExampleScenario.node[580].nic.mac1609_4 	SlotsBackoff 	0
scalar IntersectionExampleScenario.node[580].nic.mac1609_4 	NumInternalContention 	0
scalar IntersectionExampleScenario.node[580].nic.mac1609_4 	totalBusyTime 	0
scalar IntersectionExampleScenario.node[580].veinsmobility 	startTime 	1792.5
scalar IntersectionExampleScenario.node[580].veinsmobility 	totalTime 	7.5
scalar IntersectionExampleScenario.node[580].veinsmobility 	stopTime 	1800
scalar IntersectionExampleScenario.node[580].veinsmobility 	minSpeed 	5.6500000953674
scalar IntersectionExampleScenario.node[580].veinsmobility 	maxSpeed 	15.427496910095
scalar IntersectionExampleScenario.node[580].veinsmobility 	totalDistance 	92.414833068848
scalar IntersectionExampleScenario.node[580].veinsmobility 	totalCO2Emission 	39.581448451147
scalar IntersectionExampleScenario.node[581].appl 	VehicleRemoved 	0
scalar IntersectionExampleScenario.node[581].appl 	ArrivedAtDest 	0
scalar IntersectionExampleScenario.node[581].appl 	IntersectionEnterTime 	1794.5
scalar IntersectionExampleScenario.node[581].appl 	IntersectionExitTime 	-1
scalar IntersectionExampleScenario.node[581].appl 	NumberOfCollisions 	0
scalar IntersectionExampleScenario.node[581].nic.phy80211p 	busyTime 	0
scalar IntersectionExampleScenario.node[581].nic.mac1609_4 	ReceivedUnicastPackets 	0
scalar IntersectionExampleScenario.node[581].nic.mac1609_4 	ReceivedBroadcasts 	0
scalar IntersectionExampleScenario.node[581].nic.mac1609_4 	SentPackets 	0
scalar IntersectionExampleScenario.node[581].nic.mac1609_4 	SNIRLostPackets 	0
scalar IntersectionExampleScenario.node[581].nic.mac1609_4 	RXTXLostPackets 	0
scalar IntersectionExampleScenario.node[581].nic.mac1609_4 	TotalLostPackets 	0
scalar IntersectionExampleScenario.node[581].nic.mac1609_4 	DroppedPacketsInMac 	0
scalar IntersectionExampleScenario.node[581].nic.mac1609_4 	TooLittleTime 	0
scalar IntersectionExampleScenario.node[581].nic.mac1609_4 	TimesIntoBackoff 	0
scalar IntersectionExampleScenario.node[581].nic.mac1609_4 	SlotsBackoff 	0
scalar IntersectionExampleScenario.node[581].nic.mac1609_4 	NumInternalContention 	0
scalar IntersectionExampleScenario.node[581].nic.mac1609_4 	totalBusyTime 	0
scalar IntersectionExampleScenario.node[581].veinsmobility 	startTime 	1794.5
scalar IntersectionExampleScenario.node[581].veinsmobility 	totalTime 	5.5
scalar IntersectionExampleScenario.node[581].veinsmobility 	stopTime 	1800
scalar IntersectionExampleScenario.node[581].veinsmobility 	minSpeed 	5.6500000953674
scalar IntersectionExampleScenario.node[581].veinsmobility 	maxSpeed 	16.27499961853
scalar IntersectionExampleScenario.node[581].veinsmobility 	totalDistance 	64.152214050293
scalar IntersectionExampleScenario.node[581].veinsmobility 	totalCO2Emission 	38.13052466743
scalar IntersectionExampleScenario.node[582].appl 	VehicleRemoved 	0
scalar IntersectionExampleScenario.node[582].appl 	ArrivedAtDest 	0
scalar IntersectionExampleScenario.node[582].appl 	IntersectionEnterTime 	1798.75
scalar IntersectionExampleScenario.node[582].appl 	IntersectionExitTime 	-1
scalar IntersectionExampleScenario.node[582].appl 	NumberOfCollisions 	0
scalar IntersectionExampleScenario.node[582].nic.phy80211p 	busyTime 	0
scalar IntersectionExampleScenario.node[582].nic.mac1609_4 	ReceivedUnicastPackets 	0
scalar IntersectionExampleScenario.node[582].nic.mac1609_4 	ReceivedBroadcasts 	0
scalar IntersectionExampleScenario.node[582].nic.mac1609_4 	SentPackets 	0
scalar IntersectionExampleScenario.node[582].nic.mac1609_4 	SNIRLostPackets 	0
scalar IntersectionExampleScenario.node[582].nic.mac1609_4 	RXTXLostPackets 	0
scalar IntersectionExampleScenario.node[582].nic.mac1609_4 	TotalLostPackets 	0
scalar IntersectionExampleScenario.node[582].nic.mac1609_4 	DroppedPacketsInMac 	0
scalar IntersectionExampleScenario.node[582].nic.mac1609_4 	TooLittleTime 	0
scalar IntersectionExampleScenario.node[582].nic.mac1609_4 	TimesIntoBackoff 	0
scalar IntersectionExampleScenario.node[582].nic.mac1609_4 	SlotsBackoff 	0
scalar IntersectionExampleScenario.node[582].nic.mac1609_4 	NumInternalContention 	0
scalar IntersectionExampleScenario.node[582].nic.mac1609_4 	totalBusyTime 	0
scalar IntersectionExampleScenario.node[582].veinsmobility 	startTime 	1798.75
scalar IntersectionExampleScenario.node[582].veinsmobility 	totalTime 	1.25
scalar IntersectionExampleScenario.node[582].veinsmobility 	stopTime 	1800
scalar IntersectionExampleScenario.node[582].veinsmobility 	minSpeed 	5.6500000953674
scalar IntersectionExampleScenario.node[582].veinsmobility 	maxSpeed 	8.1499996185303
scalar IntersectionExampleScenario.node[582].veinsmobility 	totalDistance 	8.2343597412109
scalar IntersectionExampleScenario.node[582].veinsmobility 	totalCO2Emission 	5.8390974258108
scalar IntersectionExampleScenario.node[583].appl 	VehicleRemoved 	0
scalar IntersectionExampleScenario.node[583].appl 	ArrivedAtDest 	0
scalar IntersectionExampleScenario.node[583].appl 	IntersectionEnterTime 	1799
scalar IntersectionExampleScenario.node[583].appl 	IntersectionExitTime 	-1
scalar IntersectionExampleScenario.node[583].appl 	NumberOfCollisions 	0
scalar IntersectionExampleScenario.node[583].nic.phy80211p 	busyTime 	0
scalar IntersectionExampleScenario.node[583].nic.mac1609_4 	ReceivedUnicastPackets 	0
scalar IntersectionExampleScenario.node[583].nic.mac1609_4 	ReceivedBroadcasts 	0
scalar IntersectionExampleScenario.node[583].nic.mac1609_4 	SentPackets 	0
scalar IntersectionExampleScenario.node[583].nic.mac1609_4 	SNIRLostPackets 	0
scalar IntersectionExampleScenario.node[583].nic.mac1609_4 	RXTXLostPackets 	0
scalar IntersectionExampleScenario.node[583].nic.mac1609_4 	TotalLostPackets 	0
scalar IntersectionExampleScenario.node[583].nic.mac1609_4 	DroppedPacketsInMac 	0
scalar IntersectionExampleScenario.node[583].nic.mac1609_4 	TooLittleTime 	0
scalar IntersectionExampleScenario.node[583].nic.mac1609_4 	TimesIntoBackoff 	0
scalar IntersectionExampleScenario.node[583].nic.mac1609_4 	SlotsBackoff 	0
scalar IntersectionExampleScenario.node[583].nic.mac1609_4 	NumInternalContention 	0
scalar IntersectionExampleScenario.node[583].nic.mac1609_4 	totalBusyTime 	0
scalar IntersectionExampleScenario.node[583].veinsmobility 	startTime 	1799
scalar IntersectionExampleScenario.node[583].veinsmobility 	totalTime 	1
scalar IntersectionExampleScenario.node[583].veinsmobility 	stopTime 	1800
scalar IntersectionExampleScenario.node[583].veinsmobility 	minSpeed 	5.6500000953674
scalar IntersectionExampleScenario.node[583].veinsmobility 	maxSpeed 	7.5250000953674
scalar IntersectionExampleScenario.node[583].veinsmobility 	totalDistance 	6.2750244140625
scalar IntersectionExampleScenario.node[583].veinsmobility 	totalCO2Emission 	4.2232135025359
