file 20297663 1591409295                                        
version 2
run nodebug-48-20200605-22:05:08-20324
attr configname nodebug
attr datetime 20200605-22:05:08
attr experiment nodebug
attr inifile omnetpp.ini
attr iterationvars ""
attr iterationvars2 $repetition=48
attr measurement ""
attr network "\"org.car2x.veins.modules.application.ExtTraCIScenarioManagerLaunchd.IntersectionExampleScenario\""
attr processid 20324
attr repetition 48
attr replication #48
attr resultdir results
attr runnumber 48
attr seedset 48
param **.coreDebug false
param **.debug false
param *.**.nic.mac1609_4.bitrate 18Mbps
param *.**.nic.mac1609_4.txPower 20mW
param *.**.nic.mac1609_4.useServiceChannel false
param *.**.nic.phy80211p.analogueModels "xmldoc(\"config.xml\")"
param *.**.nic.phy80211p.decider "xmldoc(\"config.xml\")"
param *.**.nic.phy80211p.sensitivity -89dBm
param *.**.nic.phy80211p.thermalNoise -110dBm
param *.**.nic.phy80211p.usePropagationDelay true
param *.**.nic.phy80211p.useThermalNoise true
param *.annotations.draw false
param *.connectionManager.alpha 2.0
param *.connectionManager.carrierFrequency "5.890e9 Hz"
param *.connectionManager.pMax 20mW
param *.connectionManager.sat -89dBm
param *.connectionManager.sendDirect true
param *.manager.autoShutdown true
param *.manager.host "\"localhost\""
param *.manager.launchConfig "xmldoc(\"paramics.launchd.xml\")"
param *.manager.margin 25
param *.manager.moduleDisplayString "\"\""
param *.manager.moduleName "\"node\""
param *.manager.moduleType "\"org.car2x.veins.nodes.Car\""
param *.manager.port 9999
param *.manager.updateInterval 250ms
param *.node[*0].veinsmobility.accidentCount 0
param *.node[*0].veinsmobility.accidentDuration 30s
param *.node[*0].veinsmobility.accidentStart 75s
param *.node[*].appl.LiderSelectZoneRadio 55.0
param *.node[*].appl.ShareDataZoneRadio 110.0
param *.node[*].appl.TiempoSemaforo 30.0
param *.node[*].appl.beaconInterval 1s
param *.node[*].appl.beaconPriority 3
param *.node[*].appl.dataOnSch false
param *.node[*].appl.dataPriority 2
param *.node[*].appl.debug false
param *.node[*].appl.headerLength "256 bit"
param *.node[*].appl.maxOffset 0.005s
param *.node[*].appl.sendBeacons false
param *.node[*].appl.sendData true
param *.node[*].applType "\"Dummy\""
param *.node[*].mobilityType "\"TraCIMobility\""
param *.node[*].mobilityType.debug true
param *.node[*].veinsmobility.x 0
param *.node[*].veinsmobility.y 0
param *.node[*].veinsmobility.z 1.895
param *.node[*].veinsmobilityType "\"org.car2x.veins.modules.mobility.traci.TraCIMobility\""
param *.node[*].veinsmobilityType.debug true
param *.playgroundSizeX 8500m
param *.playgroundSizeY 8500m
param *.playgroundSizeZ 50m
param *.world.use2D false
param *.world.useTorus false

vector 47024  IntersectionExampleScenario.manager  vehiclesinsim  ETV
attr type  int
vector 47025  IntersectionExampleScenario.manager  realtime  ETV
attr type  int
attr unit  s
vector 47028  IntersectionExampleScenario.node[0].veinsmobility  posx  ETV
vector 47029  IntersectionExampleScenario.node[0].veinsmobility  posy  ETV
vector 47030  IntersectionExampleScenario.node[0].veinsmobility  speed  ETV
vector 47031  IntersectionExampleScenario.node[0].veinsmobility  acceleration  ETV
vector 47032  IntersectionExampleScenario.node[0].veinsmobility  co2emission  ETV
vector 47035  IntersectionExampleScenario.node[1].veinsmobility  posx  ETV
vector 47036  IntersectionExampleScenario.node[1].veinsmobility  posy  ETV
vector 47037  IntersectionExampleScenario.node[1].veinsmobility  speed  ETV
vector 47038  IntersectionExampleScenario.node[1].veinsmobility  acceleration  ETV
vector 47039  IntersectionExampleScenario.node[1].veinsmobility  co2emission  ETV
vector 47042  IntersectionExampleScenario.node[2].veinsmobility  posx  ETV
vector 47043  IntersectionExampleScenario.node[2].veinsmobility  posy  ETV
vector 47044  IntersectionExampleScenario.node[2].veinsmobility  speed  ETV
vector 47045  IntersectionExampleScenario.node[2].veinsmobility  acceleration  ETV
vector 47046  IntersectionExampleScenario.node[2].veinsmobility  co2emission  ETV
vector 47049  IntersectionExampleScenario.node[3].veinsmobility  posx  ETV
vector 47050  IntersectionExampleScenario.node[3].veinsmobility  posy  ETV
vector 47051  IntersectionExampleScenario.node[3].veinsmobility  speed  ETV
vector 47052  IntersectionExampleScenario.node[3].veinsmobility  acceleration  ETV
vector 47053  IntersectionExampleScenario.node[3].veinsmobility  co2emission  ETV
vector 47056  IntersectionExampleScenario.node[4].veinsmobility  posx  ETV
vector 47057  IntersectionExampleScenario.node[4].veinsmobility  posy  ETV
vector 47058  IntersectionExampleScenario.node[4].veinsmobility  speed  ETV
vector 47059  IntersectionExampleScenario.node[4].veinsmobility  acceleration  ETV
vector 47060  IntersectionExampleScenario.node[4].veinsmobility  co2emission  ETV
vector 47063  IntersectionExampleScenario.node[5].veinsmobility  posx  ETV
vector 47064  IntersectionExampleScenario.node[5].veinsmobility  posy  ETV
vector 47065  IntersectionExampleScenario.node[5].veinsmobility  speed  ETV
vector 47066  IntersectionExampleScenario.node[5].veinsmobility  acceleration  ETV
vector 47067  IntersectionExampleScenario.node[5].veinsmobility  co2emission  ETV
vector 47070  IntersectionExampleScenario.node[6].veinsmobility  posx  ETV
vector 47071  IntersectionExampleScenario.node[6].veinsmobility  posy  ETV
vector 47072  IntersectionExampleScenario.node[6].veinsmobility  speed  ETV
vector 47073  IntersectionExampleScenario.node[6].veinsmobility  acceleration  ETV
vector 47074  IntersectionExampleScenario.node[6].veinsmobility  co2emission  ETV
vector 47077  IntersectionExampleScenario.node[7].veinsmobility  posx  ETV
vector 47078  IntersectionExampleScenario.node[7].veinsmobility  posy  ETV
vector 47079  IntersectionExampleScenario.node[7].veinsmobility  speed  ETV
vector 47080  IntersectionExampleScenario.node[7].veinsmobility  acceleration  ETV
vector 47081  IntersectionExampleScenario.node[7].veinsmobility  co2emission  ETV
vector 47084  IntersectionExampleScenario.node[8].veinsmobility  posx  ETV
vector 47085  IntersectionExampleScenario.node[8].veinsmobility  posy  ETV
vector 47086  IntersectionExampleScenario.node[8].veinsmobility  speed  ETV
vector 47087  IntersectionExampleScenario.node[8].veinsmobility  acceleration  ETV
vector 47088  IntersectionExampleScenario.node[8].veinsmobility  co2emission  ETV
vector 47091  IntersectionExampleScenario.node[9].veinsmobility  posx  ETV
vector 47092  IntersectionExampleScenario.node[9].veinsmobility  posy  ETV
vector 47093  IntersectionExampleScenario.node[9].veinsmobility  speed  ETV
vector 47098  IntersectionExampleScenario.node[10].veinsmobility  posx  ETV
vector 47099  IntersectionExampleScenario.node[10].veinsmobility  posy  ETV
vector 47094  IntersectionExampleScenario.node[9].veinsmobility  acceleration  ETV
vector 47095  IntersectionExampleScenario.node[9].veinsmobility  co2emission  ETV
vector 47100  IntersectionExampleScenario.node[10].veinsmobility  speed  ETV
vector 47101  IntersectionExampleScenario.node[10].veinsmobility  acceleration  ETV
vector 47102  IntersectionExampleScenario.node[10].veinsmobility  co2emission  ETV
vector 47105  IntersectionExampleScenario.node[11].veinsmobility  posx  ETV
vector 47106  IntersectionExampleScenario.node[11].veinsmobility  posy  ETV
vector 47107  IntersectionExampleScenario.node[11].veinsmobility  speed  ETV
vector 47108  IntersectionExampleScenario.node[11].veinsmobility  acceleration  ETV
vector 47109  IntersectionExampleScenario.node[11].veinsmobility  co2emission  ETV
vector 47112  IntersectionExampleScenario.node[12].veinsmobility  posx  ETV
vector 47113  IntersectionExampleScenario.node[12].veinsmobility  posy  ETV
vector 47119  IntersectionExampleScenario.node[13].veinsmobility  posx  ETV
vector 47120  IntersectionExampleScenario.node[13].veinsmobility  posy  ETV
vector 47114  IntersectionExampleScenario.node[12].veinsmobility  speed  ETV
vector 47115  IntersectionExampleScenario.node[12].veinsmobility  acceleration  ETV
vector 47116  IntersectionExampleScenario.node[12].veinsmobility  co2emission  ETV
vector 47121  IntersectionExampleScenario.node[13].veinsmobility  speed  ETV
vector 47122  IntersectionExampleScenario.node[13].veinsmobility  acceleration  ETV
vector 47123  IntersectionExampleScenario.node[13].veinsmobility  co2emission  ETV
vector 47126  IntersectionExampleScenario.node[14].veinsmobility  posx  ETV
vector 47127  IntersectionExampleScenario.node[14].veinsmobility  posy  ETV
vector 47128  IntersectionExampleScenario.node[14].veinsmobility  speed  ETV
vector 47129  IntersectionExampleScenario.node[14].veinsmobility  acceleration  ETV
vector 47130  IntersectionExampleScenario.node[14].veinsmobility  co2emission  ETV
vector 47133  IntersectionExampleScenario.node[15].veinsmobility  posx  ETV
vector 47134  IntersectionExampleScenario.node[15].veinsmobility  posy  ETV
vector 47135  IntersectionExampleScenario.node[15].veinsmobility  speed  ETV
vector 47140  IntersectionExampleScenario.node[16].veinsmobility  posx  ETV
vector 47141  IntersectionExampleScenario.node[16].veinsmobility  posy  ETV
vector 47136  IntersectionExampleScenario.node[15].veinsmobility  acceleration  ETV
vector 47137  IntersectionExampleScenario.node[15].veinsmobility  co2emission  ETV
vector 47147  IntersectionExampleScenario.node[17].veinsmobility  posx  ETV
vector 47148  IntersectionExampleScenario.node[17].veinsmobility  posy  ETV
vector 47142  IntersectionExampleScenario.node[16].veinsmobility  speed  ETV
vector 47143  IntersectionExampleScenario.node[16].veinsmobility  acceleration  ETV
vector 47144  IntersectionExampleScenario.node[16].veinsmobility  co2emission  ETV
vector 47149  IntersectionExampleScenario.node[17].veinsmobility  speed  ETV
vector 47150  IntersectionExampleScenario.node[17].veinsmobility  acceleration  ETV
vector 47151  IntersectionExampleScenario.node[17].veinsmobility  co2emission  ETV
vector 47154  IntersectionExampleScenario.node[18].veinsmobility  posx  ETV
vector 47155  IntersectionExampleScenario.node[18].veinsmobility  posy  ETV
vector 47156  IntersectionExampleScenario.node[18].veinsmobility  speed  ETV
vector 47157  IntersectionExampleScenario.node[18].veinsmobility  acceleration  ETV
vector 47158  IntersectionExampleScenario.node[18].veinsmobility  co2emission  ETV
vector 47161  IntersectionExampleScenario.node[19].veinsmobility  posx  ETV
vector 47162  IntersectionExampleScenario.node[19].veinsmobility  posy  ETV
vector 47163  IntersectionExampleScenario.node[19].veinsmobility  speed  ETV
vector 47164  IntersectionExampleScenario.node[19].veinsmobility  acceleration  ETV
vector 47165  IntersectionExampleScenario.node[19].veinsmobility  co2emission  ETV
47039	10906 4835 31 3581 2.5 41.25 156 0.973 12.099024792222 517.37835945647 3003.4060516599
47038	15741 4554 31 3581 2.5 41.25 156 -3.4799041748047 2.5 40.038900375366 302.93202169991
47037	20295 4739 26 3581 2.25 41.25 157 5.6500000953674 16.27499961853 2177.5315408707 31700.57761763
47036	25034 5086 21 3581 2 41.25 158 238.400390625 483.14999389648 68454.019989014 30545096.875753
47035	30120 5071 21 3581 2 41.25 158 184.17810058594 483.14999389648 62768.88684082 26651754.229255
vector 47168  IntersectionExampleScenario.node[20].veinsmobility  posx  ETV
vector 47169  IntersectionExampleScenario.node[20].veinsmobility  posy  ETV
vector 47170  IntersectionExampleScenario.node[20].veinsmobility  speed  ETV
vector 47171  IntersectionExampleScenario.node[20].veinsmobility  acceleration  ETV
vector 47172  IntersectionExampleScenario.node[20].veinsmobility  co2emission  ETV
vector 47175  IntersectionExampleScenario.node[21].veinsmobility  posx  ETV
vector 47176  IntersectionExampleScenario.node[21].veinsmobility  posy  ETV
vector 47177  IntersectionExampleScenario.node[21].veinsmobility  speed  ETV
vector 47178  IntersectionExampleScenario.node[21].veinsmobility  acceleration  ETV
vector 47179  IntersectionExampleScenario.node[21].veinsmobility  co2emission  ETV
47032	35993 6021 9 5041 1 51.5 203 0.973 11.450879080643 567.09284761521 2813.4882420459
47031	42014 5316 9 5041 1 51.5 203 -6.998438835144 4 37.492597579956 466.08309252326
47030	47330 5831 6 5041 0.75 51.5 204 0 15.375 2203.9427442551 30785.574977167
47029	53161 6622 3 5041 0.5 51.5 205 236.23193359375 486.85000610352 91248.703308105 41688659.524364
47028	59783 6616 3 5041 0.5 51.5 205 483.14999389648 785.82187652588 114025.80646515 65396907.328889
47046	66399 6322 50 5367 3.25 54.25 205 0.973 11.450879080643 568.37039948472 2781.0382738287
47045	72721 6190 50 5367 3.25 54.25 205 -4.5 2.5 36.98334312439 412.95358277676
47044	78911 6485 43 5367 3 54.25 206 0 15.375 2278.1237881295 31200.561969881
47043	85396 6705 36 5367 2.75 54.25 207 235.08953857422 486.85000610352 92078.400024414 42054105.500928
47042	92101 6698 36 5367 2.75 54.25 207 482.98672485352 802.70781707764 116848.02310181 68189691.801416
vector 47182  IntersectionExampleScenario.node[22].veinsmobility  posx  ETV
vector 47183  IntersectionExampleScenario.node[22].veinsmobility  posy  ETV
vector 47184  IntersectionExampleScenario.node[22].veinsmobility  speed  ETV
vector 47189  IntersectionExampleScenario.node[23].veinsmobility  posx  ETV
vector 47190  IntersectionExampleScenario.node[23].veinsmobility  posy  ETV
vector 47185  IntersectionExampleScenario.node[22].veinsmobility  acceleration  ETV
vector 47186  IntersectionExampleScenario.node[22].veinsmobility  co2emission  ETV
vector 47191  IntersectionExampleScenario.node[23].veinsmobility  speed  ETV
vector 47192  IntersectionExampleScenario.node[23].veinsmobility  acceleration  ETV
vector 47193  IntersectionExampleScenario.node[23].veinsmobility  co2emission  ETV
vector 47196  IntersectionExampleScenario.node[24].veinsmobility  posx  ETV
vector 47197  IntersectionExampleScenario.node[24].veinsmobility  posy  ETV
vector 47203  IntersectionExampleScenario.node[25].veinsmobility  posx  ETV
vector 47204  IntersectionExampleScenario.node[25].veinsmobility  posy  ETV
vector 47198  IntersectionExampleScenario.node[24].veinsmobility  speed  ETV
vector 47199  IntersectionExampleScenario.node[24].veinsmobility  acceleration  ETV
vector 47200  IntersectionExampleScenario.node[24].veinsmobility  co2emission  ETV
vector 47205  IntersectionExampleScenario.node[25].veinsmobility  speed  ETV
vector 47206  IntersectionExampleScenario.node[25].veinsmobility  acceleration  ETV
vector 47207  IntersectionExampleScenario.node[25].veinsmobility  co2emission  ETV
47053	100403 6959 82 6440 4.25 65 244 0.973 11.810082123732 624.2219259185 3104.3351270552
47052	107362 6203 82 6440 4.25 65 244 -6.9388580322266 4 39.869146347046 481.49561185204
47051	113565 6555 73 6440 4 65 245 0 15.875 2183.3810286522 31318.381264493
47050	120120 8012 64 6440 3.75 65 246 486.63604736328 785.82187652588 134438.46562958 75502625.745172
47049	128132 7952 64 6440 3.75 65 246 235.62799072266 483.14999389648 110780.13833618 50949516.080879
vector 47210  IntersectionExampleScenario.node[26].veinsmobility  posx  ETV
vector 47211  IntersectionExampleScenario.node[26].veinsmobility  posy  ETV
vector 47212  IntersectionExampleScenario.node[26].veinsmobility  speed  ETV
vector 47213  IntersectionExampleScenario.node[26].veinsmobility  acceleration  ETV
vector 47214  IntersectionExampleScenario.node[26].veinsmobility  co2emission  ETV
47067	136485 6481 388 6546 11.75 66 218 0.973 12.099024792222 591.92676946699 3184.2745354457
47066	142966 6795 388 6546 11.75 66 218 -3.8983957767487 2.5 41.057416915894 356.62210107919
47065	149761 6945 375 6546 11.5 66 219 0 16.27499961853 2206.1738387011 30360.420049293
47064	156706 7208 362 6546 11.25 66 220 483.13580322266 785.82187652588 122119.05002594 69692038.748613
47063	163914 7212 362 6546 11.25 66 220 483.14999389648 732.71203613281 114335.77215576 60462612.550033
47060	171126 6896 230 6649 8.25 67 236 0.97223939240464 11.648172402475 608.63997297583 2940.7591522602
47059	178022 6601 230 6649 8.25 67 236 -7.1630792617798 4 38.680875778198 473.68384944611
47058	184623 6846 219 6649 8 67 237 0 15.64999961853 2203.734600991 31134.46719851
47057	191469 7762 208 6649 7.75 67 238 184.17810058594 486.85000610352 100556.23883057 44540901.31116
47056	199231 7785 208 6649 7.75 67 238 236.27301025391 486.85000610352 107452.09927368 49616902.820691
47081	207016 6168 628 6698 15.75 67.5 208 0.973 11.648172402475 563.33179174525 2900.9234541031
47080	213184 6479 628 6698 15.75 67.5 208 -3.8217525482178 2.5000019073486 38.850629806519 334.16439820437
47079	219663 6718 611 6698 15.5 67.5 209 0 15.64999961853 2212.5796636045 29782.689209898
47078	226381 6876 594 6698 15.25 67.5 210 184.17810058594 732.4783782959 94383.066604614 46536105.348876
47077	233257 6910 594 6698 15.25 67.5 210 486.85000610352 486.85000610352 102238.50128174 49774814.973028
47074	240167 6804 444 6882 12.75 69.5 228 0.973 11.196510023819 584.66181554 2780.6274993417
47073	246971 7123 444 6882 12.75 69.5 228 -4.5 2.5000009536743 37.15309715271 353.82527944724
47072	254094 7278 429 6882 12.5 69.5 229 1.008789896965 15.194265365601 2271.8072782755 28915.740065423
47071	261372 7538 414 6882 12.25 69.5 230 486.85000610352 807.99687957764 130621.01997375 76428887.570288
47070	268910 7549 414 6882 12.25 69.5 230 237.04327392578 483.14999389648 102802.46362305 47010668.917922
47109	276459 5623 1343 6946 24 70.25 186 0.97223939240464 11.810082123732 557.3425228977 3101.8513646828
47108	282082 5598 1343 6946 24 70.25 186 -2.9006633758545 2.5 38.680875778198 329.68380485401
47107	287680 5831 1318 6946 23.75 70.25 187 3.7627124786377 15.875 2191.9736924171 28660.212626003
47106	293511 6168 1293 6946 23.5 70.25 188 184.17810058594 483.14999389648 75557.28137207 32144283.369013
47105	299679 6196 1293 6946 23.5 70.25 188 486.85000610352 735.18124389648 99798.785324097 53979015.628212
47102	305875 6475 879 7093 19 72 213 0.973 11.334526855318 559.7725737557 2737.2416566541
47101	312350 6610 879 7093 19 72 213 -4.5 2.5 37.32285118103 377.53110269555
47100	318960 6728 856 7093 18.75 72 214 2.1097204685211 15.248255729675 2092.0196623802 26030.643187287
47099	325688 7065 833 7093 18.5 72 215 486.85000610352 761.84526824951 119716.96642303 68126766.042404
47098	332753 7079 833 7093 18.5 72 215 235.47821044922 483.14999389648 95465.857788086 43445094.36031
47123	339832 5992 1453 7135 25 72.5 191 0.973 11.648172402475 566.20966608813 2922.2382925757
47122	345824 5590 1453 7135 25 72.5 191 -4.5 2.5 38.341367721558 412.26479785233
47121	351414 6008 1424 7135 24.75 72.5 192 3.951557636261 15.64999961853 2277.4717788696 30105.595080558
47120	357422 6313 1395 7135 24.5 72.5 193 162.00311279297 483.23202514648 76114.354644775 32156200.947461
47119	363735 6365 1395 7135 24.5 72.5 193 486.85000610352 734.23249816895 102228.72239685 55152558.005789
47088	370100 6942 734 7240 17.25 73.75 227 0.973 11.093806525473 603.14124876316 2840.5419891793
47087	377042 6768 734 7240 17.25 73.75 227 -4.5 2.5000019073486 36.474081039429 429.44038311297
47086	383810 7287 715 7240 17 73.75 228 1.5882742404938 15.129607200623 2276.3277447224 27977.269586695
47085	391097 7521 696 7240 16.75 73.75 229 235.05230712891 799.39677429199 123212.09107971 71281386.029614
47084	398618 7543 696 7240 16.75 73.75 229 483.14999389648 483.14999389648 110641.34860229 53456366.901897
vector 47217  IntersectionExampleScenario.node[27].veinsmobility  posx  ETV
vector 47218  IntersectionExampleScenario.node[27].veinsmobility  posy  ETV
vector 47219  IntersectionExampleScenario.node[27].veinsmobility  speed  ETV
vector 47220  IntersectionExampleScenario.node[27].veinsmobility  acceleration  ETV
vector 47221  IntersectionExampleScenario.node[27].veinsmobility  co2emission  ETV
47144	406562 5462 2303 7441 32.25 76.25 177 0.973 10.756497587458 488.67574396429 2497.7123738209
47143	412024 5282 2303 7441 32.25 76.25 177 -3.7559146881104 2.5 33.248777389526 234.59521427496
47142	417306 5611 2268 7441 32 76.25 178 5.6500000953674 14.39999961853 2188.6948065758 27907.755810013
47141	422917 5878 2235 7441 31.75 76.25 179 184.17810058594 483.14999389648 71442.904937744 30351490.070804
47140	428795 5898 2235 7441 31.75 76.25 179 486.85000610352 734.59306335449 96146.416641235 52675022.828762
47158	434693 5662 2482 7525 33.5 77.25 176 0.973 11.00486315618 527.00490606182 2633.372316862
47157	440355 5318 2482 7525 33.5 77.25 176 -4.5 2.5 35.455564498901 317.6060662008
47156	445673 5578 2445 7525 33.25 77.25 177 5.6500000953674 14.75 2294.5366477966 30622.06195712
47155	451251 5859 2408 7525 33 77.25 178 162.90466308594 486.85000610352 69603.301086426 29407621.867843
47154	457110 5863 2408 7525 33 77.25 178 236.37530517578 486.85000610352 77822.889953613 35062269.321564
vector 47224  IntersectionExampleScenario.node[28].veinsmobility  posx  ETV
vector 47225  IntersectionExampleScenario.node[28].veinsmobility  posy  ETV
vector 47226  IntersectionExampleScenario.node[28].veinsmobility  speed  ETV
vector 47227  IntersectionExampleScenario.node[28].veinsmobility  acceleration  ETV
vector 47228  IntersectionExampleScenario.node[28].veinsmobility  co2emission  ETV
47095	463374 7347 833 7947 18.5 82.25 256 0.97223939240464 11.648172402475 628.44982680558 2941.265089038
47094	470721 6742 833 7947 18.5 82.25 256 -7.1630792617798 4 38.680875778198 469.67827580907
47093	477463 6970 812 7947 18.25 82.25 257 0 15.64999961853 2215.0308310986 31517.007725021
47092	484433 8503 791 7947 18 82.25 258 483.14999389648 483.14999389648 124652.69842529 60225950.48336
47091	492936 8465 791 7947 18 82.25 258 184.17810058594 734.07926940918 118105.71549988 58239659.317532
vector 47231  IntersectionExampleScenario.node[29].veinsmobility  posx  ETV
vector 47232  IntersectionExampleScenario.node[29].veinsmobility  posy  ETV
vector 47233  IntersectionExampleScenario.node[29].veinsmobility  speed  ETV
vector 47234  IntersectionExampleScenario.node[29].veinsmobility  acceleration  ETV
vector 47235  IntersectionExampleScenario.node[29].veinsmobility  co2emission  ETV
47116	501802 7138 1424 8027 24.75 83.25 235 0.973 11.90022389248 610.03875939541 3087.9769118294
47115	508940 7475 1424 8027 24.75 83.25 235 -3.8414235115051 2.5000009536743 40.038900375366 364.38883898268
47114	516415 7544 1395 8027 24.5 83.25 236 0 16 2209.2263400499 30468.152276045
47113	523959 7816 1368 8027 24.25 83.25 237 483.14999389648 733.48348999023 122716.90391541 64626168.308882
47112	531775 7786 1368 8027 24.25 83.25 237 184.17810058594 486.86703491211 99289.692687988 43563584.612986
47151	539561 6386 2338 8219 32.5 85.75 214 0.97223939240464 11.648172402475 573.68339308101 2902.4155632984
47150	545947 6485 2338 8219 32.5 85.75 214 -3.830070734024 2.5 38.680875778198 345.24312268629
47149	552432 6833 2303 8219 32.25 85.75 215 0 15.64999961853 2208.1938161366 28888.04656829
47148	559265 7114 2268 8219 32 85.75 216 483.14999389648 733.17321777344 112727.85824585 59900466.017241
47147	566379 7099 2268 8219 32 85.75 216 184.17810058594 486.85000610352 88620.997283936 38244121.978156
47179	573478 5161 4941 8559 50.75 90.75 161 0.973 11.36141391502 499.34038570949 2614.2275838502
47178	578639 4501 4941 8559 50.75 90.75 161 -3.4165782928467 2.5 37.492597579956 268.68030164389
47177	583140 5026 4906 8559 50.5 90.75 162 5.6500000953674 15.25 2177.7739691734 30562.39110604
47176	588166 5375 4870 8559 50.25 90.75 163 238.38116455078 483.14999389648 70553.452911377 31459532.758469
47175	593541 5359 4870 8559 50.25 90.75 163 184.17810058594 483.20883178711 64791.694152832 27510452.537655
47130	598900 7941 1593 8918 26.25 96.25 281 0.973 11.648172402475 650.47323952256 2999.34469623
47129	606841 6839 1593 8918 26.25 96.25 281 -13.400615692139 4 38.341367721558 629.77529301134
47128	613680 7348 1564 8918 26 96.25 282 0 15.64999961853 2177.944852829 30847.813563909
47127	621028 9269 1535 8918 25.75 96.25 283 486.85000610352 733.04777526855 145960.29953003 76382447.232574
47126	630297 9336 1535 8918 25.75 96.25 283 486.63604736328 785.82187652588 153003.36501312 84843259.334915
47137	639633 8006 2235 8986 31.75 97.5 264 0.973 11.54047740176 618.60027122981 2842.8130981095
47136	647639 8437 2235 8986 31.75 97.5 264 -3.9659385681152 2.5000004768372 37.15309715271 341.23287600061
47135	656076 8556 2204 8986 31.5 97.5 265 0 15.5 2212.0770208808 29320.431279592
47134	664632 8779 2173 8986 31.25 97.5 266 486.85000610352 486.85000610352 129502.10162354 63048098.965836
47133	673411 8759 2173 8986 31.25 97.5 266 237.48376464844 785.82187652588 137460.76784515 75242766.208564
vector 47238  IntersectionExampleScenario.node[30].veinsmobility  posx  ETV
vector 47239  IntersectionExampleScenario.node[30].veinsmobility  posy  ETV
vector 47240  IntersectionExampleScenario.node[30].veinsmobility  speed  ETV
vector 47241  IntersectionExampleScenario.node[30].veinsmobility  acceleration  ETV
vector 47242  IntersectionExampleScenario.node[30].veinsmobility  co2emission  ETV
47165	682571 7450 3161 9132 38.25 100 248 0.973 11.36141391502 619.87921314504 2934.3623509813
47164	690021 7742 3161 9132 38.25 100 248 -3.9596409797668 2.5 39.869146347046 355.81094717751
47163	697763 7867 3126 9132 38 100 249 0 15.682430267334 2190.1127348617 28394.629897757
47162	705630 8240 3091 9132 37.75 100 250 486.85000610352 734.63633728027 129814.74604797 68477011.913294
47161	713870 8224 3091 9132 37.75 100 250 486.83135986328 785.82187652588 138700.23668671 78861074.315192
vector 47245  IntersectionExampleScenario.node[31].veinsmobility  posx  ETV
vector 47246  IntersectionExampleScenario.node[31].veinsmobility  posy  ETV
vector 47247  IntersectionExampleScenario.node[31].veinsmobility  speed  ETV
vector 47248  IntersectionExampleScenario.node[31].veinsmobility  acceleration  ETV
vector 47249  IntersectionExampleScenario.node[31].veinsmobility  co2emission  ETV
47193	722495 5382 5780 9243 58.5 101.75 174 0.97223939240464 11.648172402475 549.58622864652 3077.8405589011
47192	727877 5156 5780 9243 58.5 101.75 174 -3.0997886657715 2.5000019073486 38.680875778198 320.61801245035
47191	733033 5497 5756 9243 58.25 101.75 175 5.4636225700378 15.64999961853 2204.4690122604 29678.55368207
47190	738530 5808 5731 9243 58 101.75 176 237.61169433594 486.85000610352 77372.203521729 35001470.03034
47189	744338 5807 5731 9243 58 101.75 176 482.93200683594 785.82187652588 100257.68027496 58896698.451064
vector 47252  IntersectionExampleScenario.node[32].veinsmobility  posx  ETV
vector 47253  IntersectionExampleScenario.node[32].veinsmobility  posy  ETV
vector 47254  IntersectionExampleScenario.node[32].veinsmobility  speed  ETV
vector 47255  IntersectionExampleScenario.node[32].veinsmobility  acceleration  ETV
vector 47256  IntersectionExampleScenario.node[32].veinsmobility  co2emission  ETV
vector 47259  IntersectionExampleScenario.node[33].veinsmobility  posx  ETV
vector 47260  IntersectionExampleScenario.node[33].veinsmobility  posy  ETV
vector 47261  IntersectionExampleScenario.node[33].veinsmobility  speed  ETV
vector 47262  IntersectionExampleScenario.node[33].veinsmobility  acceleration  ETV
vector 47263  IntersectionExampleScenario.node[33].veinsmobility  co2emission  ETV
vector 47266  IntersectionExampleScenario.node[34].veinsmobility  posx  ETV
vector 47267  IntersectionExampleScenario.node[34].veinsmobility  posy  ETV
vector 47268  IntersectionExampleScenario.node[34].veinsmobility  speed  ETV
vector 47273  IntersectionExampleScenario.node[35].veinsmobility  posx  ETV
vector 47274  IntersectionExampleScenario.node[35].veinsmobility  posy  ETV
vector 47269  IntersectionExampleScenario.node[34].veinsmobility  acceleration  ETV
vector 47270  IntersectionExampleScenario.node[34].veinsmobility  co2emission  ETV
vector 47275  IntersectionExampleScenario.node[35].veinsmobility  speed  ETV
vector 47276  IntersectionExampleScenario.node[35].veinsmobility  acceleration  ETV
vector 47277  IntersectionExampleScenario.node[35].veinsmobility  co2emission  ETV
47172	751749 7551 4180 9963 45.5 110.75 262 0.973 11.450879080643 617.97635517424 2867.3176814161
47171	759300 7112 4180 9963 45.5 110.75 262 -9.2506313323975 4 36.474081039429 495.72430688495
47170	766412 7137 4143 9963 45.25 110.75 263 0 15.375 2204.0686247349 30423.338323282
47169	773549 8751 4106 9963 45 110.75 264 483.14999389648 785.82187652588 143529.25096893 80169007.404549
47168	782300 8752 4106 9963 45 110.75 264 483.14999389648 734.18954467773 136272.116745 71513713.203328
47214	791052 5799 6519 10147 65.75 112.75 189 0.973 12.099024792222 574.77034587729 3088.0267701867
47213	796851 5551 6519 10147 65.75 112.75 189 -7.8777389526367 4 40.038900375366 520.63257494968
47212	802402 5682 6492 10147 65.5 112.75 190 0 16.27499961853 2180.3597214222 31399.236913844
47211	808084 6338 6465 10147 65.25 112.75 191 184.17810058594 483.24322509766 78304.261749268 33965965.459546
47210	814422 6357 6465 10147 65.25 112.75 191 486.85000610352 733.14979553223 100968.602005 54346574.120044
vector 47280  IntersectionExampleScenario.node[36].veinsmobility  posx  ETV
vector 47281  IntersectionExampleScenario.node[36].veinsmobility  posy  ETV
vector 47282  IntersectionExampleScenario.node[36].veinsmobility  speed  ETV
vector 47283  IntersectionExampleScenario.node[36].veinsmobility  acceleration  ETV
vector 47284  IntersectionExampleScenario.node[36].veinsmobility  co2emission  ETV
vector 47287  IntersectionExampleScenario.node[37].veinsmobility  posx  ETV
vector 47288  IntersectionExampleScenario.node[37].veinsmobility  posy  ETV
vector 47289  IntersectionExampleScenario.node[37].veinsmobility  speed  ETV
vector 47290  IntersectionExampleScenario.node[37].veinsmobility  acceleration  ETV
vector 47291  IntersectionExampleScenario.node[37].veinsmobility  co2emission  ETV
47207	821581 7824 5882 11257 59.5 127 271 0.973 11.90022389248 651.11726545143 3089.5548933453
47206	829405 6977 5882 11257 59.5 127 271 -41.412937164307 4 39.869146347046 2066.2366687823
47205	836382 7181 5855 11257 59.25 127 272 0 16 2095.6615619659 30796.43917541
47204	843563 9180 5828 11257 59 127 273 483.14999389648 483.14999389648 131899.94833374 63727459.232393
47203	852743 9158 5828 11257 59 127 273 213.88439941406 735.07762145996 127544.27926636 63093443.396241
47186	861901 8839 5731 11427 58 129.5 287 0.973 10.916047529558 653.68379336909 2754.3226461282
47185	870740 8488 5731 11427 58 129.5 287 -4.5 2.5 35.625318527222 472.03147815648
47184	879228 8706 5708 11427 57.75 129.5 288 0 14.82799243927 2189.1838532267 28462.866692431
47183	887934 9724 5685 11427 57.5 129.5 289 234.99096679688 483.14999389648 130957.93630981 60514584.52076
47182	897658 9700 5685 11427 57.5 129.5 289 184.17810058594 483.14999389648 121347.01141357 53350114.259309
47200	907358 9180 5855 11580 59.25 131.75 291 0.973 11.00486315618 647.92416643913 2609.3769407466
47199	916538 9505 5855 11580 59.25 131.75 291 -4.5 2.5 35.795072555542 366.14163908853
47198	926043 9505 5828 11580 59 131.75 292 0 14.816850662231 2299.8195206691 28900.906700912
47197	935548 9878 5803 11580 58.75 131.75 293 483.14999389648 735.24375915527 150465.46759033 78495035.38931
47196	945426 9853 5803 11580 58.75 131.75 293 162.90466308594 486.85000610352 120770.32012939 52475673.650575
47221	955279 7135 7399 11665 75.75 133 230 0.973 11.648172402475 587.56475807999 2929.4314608202
47220	962414 7438 7399 11665 75.75 133 230 -3.8237733840942 2.5000019073486 38.341367721558 327.54932475826
47219	969852 7624 7378 11665 75.5 133 231 0 15.64999961853 2223.9151769057 29367.789901737
47218	977476 7877 7357 11665 75.25 133 232 483.14999389648 483.14999389648 112090.79858398 54156668.651704
47217	985353 7832 7357 11665 75.25 133 232 184.17810058594 734.74081420898 103768.92802429 50607781.018605
47228	993185 7071 7676 11801 79 135.25 226 0.973 11.200708441096 578.6595538154 2719.5823857211
47227	1000256 7398 7676 11801 79 135.25 226 -3.8979301452637 2.5 37.32285118103 339.27171191001
47226	1007654 7530 7653 11801 78.75 135.25 227 0 15.278142929077 2261.753439337 29347.287057425
47225	1015184 7763 7630 11801 78.5 135.25 228 483.14999389648 483.14999389648 110158.1986084 53222932.985295
47224	1022947 7725 7630 11801 78.5 135.25 228 172.9296875 733.23002624512 100355.10914612 48643026.498396
vector 47294  IntersectionExampleScenario.node[38].veinsmobility  posx  ETV
vector 47295  IntersectionExampleScenario.node[38].veinsmobility  posy  ETV
vector 47296  IntersectionExampleScenario.node[38].veinsmobility  speed  ETV
vector 47301  IntersectionExampleScenario.node[39].veinsmobility  posx  ETV
vector 47302  IntersectionExampleScenario.node[39].veinsmobility  posy  ETV
vector 47297  IntersectionExampleScenario.node[38].veinsmobility  acceleration  ETV
vector 47298  IntersectionExampleScenario.node[38].veinsmobility  co2emission  ETV
vector 47303  IntersectionExampleScenario.node[39].veinsmobility  speed  ETV
47235	1031305 7115 8027 12154 83.25 141.25 233 0.973 11.648172402475 604.48391236005 2989.6766155118
47234	1038420 6496 8027 12154 83.25 141.25 233 -7.03919506073 4 38.341367721558 481.63103295482
47233	1044916 6825 8006 12154 83 141.25 234 0 15.64999961853 2212.4081838131 31409.619262413
47232	1051741 8042 7985 12154 82.75 141.25 235 486.85000610352 486.85000610352 114409.75143433 55700388.184103
47231	1059783 8027 7985 12154 82.75 141.25 235 236.58178710938 785.82187652588 120726.04042816 66190413.963659
vector 47304  IntersectionExampleScenario.node[39].veinsmobility  acceleration  ETV
vector 47305  IntersectionExampleScenario.node[39].veinsmobility  co2emission  ETV
vector 47308  IntersectionExampleScenario.node[40].veinsmobility  posx  ETV
vector 47309  IntersectionExampleScenario.node[40].veinsmobility  posy  ETV
vector 47310  IntersectionExampleScenario.node[40].veinsmobility  speed  ETV
vector 47311  IntersectionExampleScenario.node[40].veinsmobility  acceleration  ETV
vector 47312  IntersectionExampleScenario.node[40].veinsmobility  co2emission  ETV
47270	1068380 5430 9888 12636 110 149.75 160 0.973 11.648172402475 506.62173068736 2743.0137753722
47269	1073810 4898 9888 12636 110 149.75 160 -3.47731590271 2.5 38.341367721558 280.06653551157
47268	1078708 5311 9865 12636 109.75 149.75 161 5.6500000953674 15.64999961853 2188.2595562935 31102.263563451
47267	1084019 5653 9842 12636 109.5 149.75 162 486.85000610352 734.19282531738 87133.305480957 47801203.514396
47266	1089672 5659 9842 12636 109.5 149.75 162 486.81842041016 785.82187652588 92685.972343445 54775674.841421
vector 47315  IntersectionExampleScenario.node[41].veinsmobility  posx  ETV
vector 47316  IntersectionExampleScenario.node[41].veinsmobility  posy  ETV
vector 47317  IntersectionExampleScenario.node[41].veinsmobility  speed  ETV
vector 47318  IntersectionExampleScenario.node[41].veinsmobility  acceleration  ETV
vector 47319  IntersectionExampleScenario.node[41].veinsmobility  co2emission  ETV
vector 47322  IntersectionExampleScenario.node[42].veinsmobility  posx  ETV
vector 47323  IntersectionExampleScenario.node[42].veinsmobility  posy  ETV
vector 47324  IntersectionExampleScenario.node[42].veinsmobility  speed  ETV
vector 47329  IntersectionExampleScenario.node[43].veinsmobility  posx  ETV
vector 47330  IntersectionExampleScenario.node[43].veinsmobility  posy  ETV
vector 47325  IntersectionExampleScenario.node[42].veinsmobility  acceleration  ETV
vector 47326  IntersectionExampleScenario.node[42].veinsmobility  co2emission  ETV
vector 47331  IntersectionExampleScenario.node[43].veinsmobility  speed  ETV
47242	1096365 7188 9042 12945 98.5 155.75 230 0.973 11.450879080643 589.46161242791 2841.4437238287
47241	1103553 6657 9042 12945 98.5 155.75 230 -9.2760667800903 4 36.643835067749 497.43958344813
47240	1110210 6933 9027 12945 98.25 155.75 231 0 15.375 2220.083255291 30777.467474595
47239	1117143 8029 9012 12945 98 155.75 232 184.17810058594 735.25332641602 105945.10379028 52673710.258093
47238	1125172 8059 9012 12945 98 155.75 232 486.85000610352 486.85000610352 112949.20141602 54989319.398774
vector 47332  IntersectionExampleScenario.node[43].veinsmobility  acceleration  ETV
vector 47333  IntersectionExampleScenario.node[43].veinsmobility  co2emission  ETV
47256	1133400 7097 9400 13075 104 158 217 0.973 11.54047740176 578.48015895404 2827.4309763069
47255	1140497 7198 9400 13075 104 158 217 -3.9898567199707 2.5 38.001859664917 373.84607248773
47254	1147695 7416 9381 13075 103.75 158 218 0 15.5 2221.2720861975 30536.812174525
47253	1155111 7591 9362 13075 103.5 158 219 184.17810058594 734.96853637695 99170.211380005 49115385.841101
47252	1162702 7633 9362 13075 103.5 158 219 486.85000610352 486.85000610352 106620.15133667 51908021.329015
vector 47336  IntersectionExampleScenario.node[44].veinsmobility  posx  ETV
vector 47337  IntersectionExampleScenario.node[44].veinsmobility  posy  ETV
vector 47338  IntersectionExampleScenario.node[44].veinsmobility  speed  ETV
vector 47339  IntersectionExampleScenario.node[44].veinsmobility  acceleration  ETV
vector 47340  IntersectionExampleScenario.node[44].veinsmobility  co2emission  ETV
47263	1170736 6675 9632 13131 107 159 209 0.973 11.648172402475 612.23726827283 3169.8431944365
47262	1177411 7120 9632 13131 107 159 209 -4.5 2.5000002384186 43.045751571655 419.50736447529
47261	1184531 7121 9611 13131 106.75 159 210 0 16.46396446228 2271.4015995264 31500.283793309
47260	1191652 7318 9590 13131 106.5 159 211 171.40313720703 733.98361206055 93229.76159668 45476951.172426
47259	1198970 7365 9590 13131 106.5 159 211 486.85000610352 486.85000610352 102725.35128784 50011837.901471
vector 47343  IntersectionExampleScenario.node[45].veinsmobility  posx  ETV
vector 47344  IntersectionExampleScenario.node[45].veinsmobility  posy  ETV
vector 47345  IntersectionExampleScenario.node[45].veinsmobility  speed  ETV
vector 47346  IntersectionExampleScenario.node[45].veinsmobility  acceleration  ETV
vector 47347  IntersectionExampleScenario.node[45].veinsmobility  co2emission  ETV
47277	1206736 6644 9938 13321 110.5 162 207 0.973 12.099024792222 593.39371555756 3258.4114307006
47276	1213380 6766 9938 13321 110.5 162 207 -4.2690086364746 2.5 40.038900375366 402.83109500596
47275	1220146 6939 9913 13321 110.25 162 208 2.5906715393066 16.27499961853 2241.2401413918 29567.266519048
47274	1227085 7264 9888 13321 110 162 209 168.14685058594 483.15319824219 83540.656951904 35422852.55519
47273	1234349 7300 9888 13321 110 162 209 486.85000610352 731.4521484375 109624.82971191 58482118.970355
47291	1241649 5692 10795 13525 120.75 165 178 0.973 11.810082123732 521.41013633077 2951.0781127622
47290	1247341 5866 10795 13525 120.75 165 178 -2.1776866912842 2.5 38.511121749878 260.29601989951
47289	1253207 5922 10776 13525 120.5 165 179 5.6500000953674 15.875 2191.438144207 28685.540633266
47288	1259129 6275 10757 13525 120.25 165 180 184.17810058594 483.14999389648 71830.632202148 30431944.671312
47287	1265404 6293 10757 13525 120.25 165 180 486.85000610352 735.08424377441 95920.703170776 52101201.77947
vector 47350  IntersectionExampleScenario.node[46].veinsmobility  posx  ETV
vector 47351  IntersectionExampleScenario.node[46].veinsmobility  posy  ETV
vector 47352  IntersectionExampleScenario.node[46].veinsmobility  speed  ETV
vector 47353  IntersectionExampleScenario.node[46].veinsmobility  acceleration  ETV
vector 47354  IntersectionExampleScenario.node[46].veinsmobility  co2emission  ETV
vector 47357  IntersectionExampleScenario.node[47].veinsmobility  posx  ETV
vector 47358  IntersectionExampleScenario.node[47].veinsmobility  posy  ETV
vector 47359  IntersectionExampleScenario.node[47].veinsmobility  speed  ETV
vector 47360  IntersectionExampleScenario.node[47].veinsmobility  acceleration  ETV
vector 47361  IntersectionExampleScenario.node[47].veinsmobility  co2emission  ETV
vector 47364  IntersectionExampleScenario.node[48].veinsmobility  posx  ETV
vector 47365  IntersectionExampleScenario.node[48].veinsmobility  posy  ETV
vector 47366  IntersectionExampleScenario.node[48].veinsmobility  speed  ETV
vector 47367  IntersectionExampleScenario.node[48].veinsmobility  acceleration  ETV
vector 47368  IntersectionExampleScenario.node[48].veinsmobility  co2emission  ETV
47249	1272900 8666 9226 14155 101.5 173 287 0.973 11.200708441096 635.19446332719 2732.3055724309
47248	1281566 7598 9226 14155 101.5 173 287 -11.697895050049 4 35.625318527222 568.64606648893
47247	1289164 8097 9209 14155 101.25 173 288 0 15.02499961853 2184.2395687103 29762.713724521
47246	1297261 10001 9192 14155 101 173 289 234.9931640625 483.14999389648 130956.03585815 60512702.518946
47245	1307262 10051 9192 14155 101 173 289 184.17810058594 483.36395263672 124000.30145264 55370405.161326
47284	1317313 7716 10235 14178 113.75 173.25 239 0.97223939240464 11.648172402475 602.76280889075 2953.3550754697
47283	1325029 8021 10235 14178 113.75 173.25 239 -3.8634688854218 2.5 38.680875778198 344.39883484842
47282	1333050 8251 10212 14178 113.5 173.25 240 0 15.64999961853 2218.2862027008 29761.197218094
47281	1341301 8436 10189 14178 113.25 173.25 241 483.14999389648 483.14999389648 116439.14852905 56257573.901123
47280	1349737 8401 10189 14178 113.25 173.25 241 184.17810058594 733.85777282715 108874.99420166 53345163.34816
vector 47371  IntersectionExampleScenario.node[49].veinsmobility  posx  ETV
vector 47372  IntersectionExampleScenario.node[49].veinsmobility  posy  ETV
vector 47373  IntersectionExampleScenario.node[49].veinsmobility  speed  ETV
vector 47374  IntersectionExampleScenario.node[49].veinsmobility  acceleration  ETV
vector 47375  IntersectionExampleScenario.node[49].veinsmobility  co2emission  ETV
vector 47378  IntersectionExampleScenario.node[50].veinsmobility  posx  ETV
vector 47379  IntersectionExampleScenario.node[50].veinsmobility  posy  ETV
vector 47380  IntersectionExampleScenario.node[50].veinsmobility  speed  ETV
vector 47381  IntersectionExampleScenario.node[50].veinsmobility  acceleration  ETV
vector 47382  IntersectionExampleScenario.node[50].veinsmobility  co2emission  ETV
vector 47385  IntersectionExampleScenario.node[51].veinsmobility  posx  ETV
vector 47386  IntersectionExampleScenario.node[51].veinsmobility  posy  ETV
vector 47392  IntersectionExampleScenario.node[52].veinsmobility  posx  ETV
vector 47393  IntersectionExampleScenario.node[52].veinsmobility  posy  ETV
vector 47387  IntersectionExampleScenario.node[51].veinsmobility  speed  ETV
vector 47394  IntersectionExampleScenario.node[52].veinsmobility  speed  ETV
vector 47388  IntersectionExampleScenario.node[51].veinsmobility  acceleration  ETV
vector 47389  IntersectionExampleScenario.node[51].veinsmobility  co2emission  ETV
vector 47395  IntersectionExampleScenario.node[52].veinsmobility  acceleration  ETV
vector 47396  IntersectionExampleScenario.node[52].veinsmobility  co2emission  ETV
vector 47399  IntersectionExampleScenario.node[53].veinsmobility  posx  ETV
vector 47400  IntersectionExampleScenario.node[53].veinsmobility  posy  ETV
vector 47401  IntersectionExampleScenario.node[53].veinsmobility  speed  ETV
vector 47402  IntersectionExampleScenario.node[53].veinsmobility  acceleration  ETV
vector 47403  IntersectionExampleScenario.node[53].veinsmobility  co2emission  ETV
vector 47406  IntersectionExampleScenario.node[54].veinsmobility  posx  ETV
vector 47407  IntersectionExampleScenario.node[54].veinsmobility  posy  ETV
vector 47408  IntersectionExampleScenario.node[54].veinsmobility  speed  ETV
vector 47409  IntersectionExampleScenario.node[54].veinsmobility  acceleration  ETV
vector 47410  IntersectionExampleScenario.node[54].veinsmobility  co2emission  ETV
47298	1360544 7460 12137 16631 141 200.5 239 0.973 11.36141391502 596.75498256408 2813.1240397943
47297	1368004 6754 12137 16631 141 200.5 239 -8.4870567321777 4 37.15309715271 476.36065124764
47296	1374758 7101 12122 16631 140.75 200.5 240 0 15.25 2176.7448656559 30094.704683899
47295	1381859 8424 12107 16631 140.5 200.5 241 486.63604736328 785.82187652588 132267.20980072 74637392.80119
47294	1390283 8370 12107 16631 140.5 200.5 241 236.84155273438 483.14999389648 108101.81021118 49566938.481925
47319	1398653 6447 12717 16709 151.5 201.75 202 0.97223939240464 11.648172402475 560.84862942853 2894.8975367138
47318	1405100 6587 12717 16709 151.5 201.75 202 -3.8517127037048 2.5000019073486 38.680875778198 340.53963454511
47317	1411687 6864 12704 16709 151.25 201.75 203 0 15.64999961853 2208.5839753374 29421.641939258
47316	1418551 7125 12691 16709 151 201.75 204 483.14999389648 785.82187652588 114287.5280838 65910088.220839
47315	1425676 7129 12691 16709 151 201.75 204 483.14999389648 733.27581787109 106936.88529968 57107570.292646
47305	1432805 7557 12171 16709 141.5 201.75 242 0.973 11.648172402475 621.53407094623 2941.0415998712
47304	1440362 7125 12171 16709 141.5 201.75 242 -7.26416015625 4 39.699392318726 479.2529093876
47303	1447487 7480 12154 16709 141.25 201.75 243 0 15.64999961853 2187.9109744579 31291.860599773
47302	1454967 8511 12137 16709 141 201.75 244 184.17810058594 487.05874633789 103469.55838013 45936203.607845
47301	1463478 8528 12137 16709 141 201.75 244 238.26104736328 486.85000610352 110625.92391968 51231157.693293
vector 47413  IntersectionExampleScenario.node[55].veinsmobility  posx  ETV
vector 47414  IntersectionExampleScenario.node[55].veinsmobility  posy  ETV
vector 47415  IntersectionExampleScenario.node[55].veinsmobility  speed  ETV
vector 47416  IntersectionExampleScenario.node[55].veinsmobility  acceleration  ETV
vector 47417  IntersectionExampleScenario.node[55].veinsmobility  co2emission  ETV
47333	1472407 6260 12960 16843 156 203.75 192 0.973 11.648172402475 560.07441043001 2899.2072597307
47332	1478667 6270 12960 16843 156 203.75 192 -4.4383926391602 2.5 39.699392318726 338.35703906477
47331	1484937 6484 12945 16843 155.75 203.75 193 2.7314558029175 15.64999961853 2208.1093554497 29434.686248117
47330	1491421 6768 12929 16843 155.5 203.75 194 483.14999389648 785.82187652588 109623.41492462 63756774.558877
47329	1498189 6785 12929 16843 155.5 203.75 194 483.14999389648 733.12284851074 101969.95826721 54617891.71692
47312	1504974 8078 12283 16860 143.25 204 244 0.973 11.90022389248 634.52749435872 3109.2511975558
47311	1513052 7963 12283 16860 143.25 204 244 -4.5 2.5 39.869146347046 442.88021422007
47310	1521015 8197 12266 16860 143 204 245 0 16 2283.685711829 32501.976916947
47309	1529212 8582 12249 16860 142.75 204 246 164.94219970703 487.13101196289 102234.37594604 44844461.537388
47308	1537794 8525 12249 16860 142.75 204 246 236.85418701172 486.85000610352 111552.85925293 51678145.854049
vector 47420  IntersectionExampleScenario.node[56].veinsmobility  posx  ETV
vector 47421  IntersectionExampleScenario.node[56].veinsmobility  posy  ETV
vector 47422  IntersectionExampleScenario.node[56].veinsmobility  speed  ETV
vector 47423  IntersectionExampleScenario.node[56].veinsmobility  acceleration  ETV
vector 47424  IntersectionExampleScenario.node[56].veinsmobility  co2emission  ETV
vector 47427  IntersectionExampleScenario.node[57].veinsmobility  posx  ETV
vector 47428  IntersectionExampleScenario.node[57].veinsmobility  posy  ETV
vector 47429  IntersectionExampleScenario.node[57].veinsmobility  speed  ETV
vector 47430  IntersectionExampleScenario.node[57].veinsmobility  acceleration  ETV
vector 47431  IntersectionExampleScenario.node[57].veinsmobility  co2emission  ETV
47326	1547121 6684 12929 17107 155.5 207.25 208 0.973 10.916047529558 536.14223075528 2500.1890747203
47325	1553805 6836 12929 17107 155.5 207.25 208 -2.3472390174866 2.5 34.77654838562 293.90570325589
47324	1560641 7014 12914 17107 155.25 207.25 209 1.3813560009003 14.625 2181.403047204 27254.445523737
47323	1567655 7316 12899 17107 155 207.25 210 184.17810058594 483.14999389648 85485.820770264 36681989.998944
47322	1574971 7342 12899 17107 155 207.25 210 486.85000610352 732.36415100098 110846.82675171 59563931.919176
47354	1582313 5495 13733 17254 168 209 165 0.973 11.218418162825 520.64531937273 2975.3603374763
47353	1587808 5201 13733 17254 168 209 165 -3.0331611633301 2.5 35.625318527222 266.1256593465
47352	1593009 5589 13714 17254 167.75 209 166 5.6500000953674 15.049823760986 2221.3199357986 30332.160308777
47351	1598598 5814 13695 17254 167.5 209 167 184.17810058594 734.59628295898 74948.644287109 37955885.835217
47350	1604412 5844 13695 17254 167.5 209 167 486.85000610352 486.85000610352 81303.951019287 39582829.04998
47368	1610256 5234 14109 17413 172.5 211 155 0.973 11.648172402475 505.88549932455 2780.078668657
47367	1615490 5185 14109 17413 172.5 211 155 -3.7027854919434 2.5 39.529638290405 252.29444983902
47366	1620675 5176 14086 17413 172.25 211 156 5.6500000953674 16.017530441284 2203.8038492203 32138.001250218
47365	1625851 5483 14063 17413 172 211 157 483.14999389648 785.82187652588 89817.68473053 53144152.385345
47364	1631334 5487 14063 17413 172 211 157 483.14999389648 731.87998962402 84047.079788208 45920214.618583
vector 47434  IntersectionExampleScenario.node[58].veinsmobility  posx  ETV
vector 47435  IntersectionExampleScenario.node[58].veinsmobility  posy  ETV
47375	1636975 5393 14343 17641 175 214 157 0.973 11.200708441096 460.16812370895 2220.1329588468
47374	1642368 5079 14343 17641 175 214 157 -3.2037506103516 2.5 36.813589096069 173.25989196508
47373	1647447 5312 14318 17641 174.75 214 158 5.6500000953674 15.02499961853 2213.2681703568 31560.211617385
47372	1652759 5529 14293 17641 174.5 214 159 184.17810058594 732.51385498047 71356.677062988 36225889.43416
47371	1658288 5564 14293 17641 174.5 214 159 486.85000610352 486.85000610352 77409.150970459 37686645.622436
vector 47436  IntersectionExampleScenario.node[58].veinsmobility  speed  ETV
vector 47437  IntersectionExampleScenario.node[58].veinsmobility  acceleration  ETV
vector 47438  IntersectionExampleScenario.node[58].veinsmobility  co2emission  ETV
47340	1664099 7132 13131 17817 159 216.25 230 0.973 12.099024792222 631.48389999598 3222.2027435963
47339	1671231 6551 13131 17817 159 216.25 230 -7.0093479156494 4 42.415441513062 490.8911199809
47338	1677782 6810 13116 17817 158.75 216.25 231 0 16.287858963013 2185.7121782303 32419.314129998
47337	1684592 8117 13101 17817 158.5 216.25 232 483.14999389648 733.53428649902 120044.86523438 63165533.605526
47336	1692709 8086 13101 17817 158.5 216.25 232 184.17810058594 486.85000610352 98065.071838379 43456037.124396
vector 47441  IntersectionExampleScenario.node[59].veinsmobility  posx  ETV
vector 47442  IntersectionExampleScenario.node[59].veinsmobility  posy  ETV
vector 47443  IntersectionExampleScenario.node[59].veinsmobility  speed  ETV
vector 47444  IntersectionExampleScenario.node[59].veinsmobility  acceleration  ETV
vector 47445  IntersectionExampleScenario.node[59].veinsmobility  co2emission  ETV
vector 47448  IntersectionExampleScenario.node[60].veinsmobility  posx  ETV
vector 47449  IntersectionExampleScenario.node[60].veinsmobility  posy  ETV
vector 47455  IntersectionExampleScenario.node[61].veinsmobility  posx  ETV
vector 47456  IntersectionExampleScenario.node[61].veinsmobility  posy  ETV
vector 47450  IntersectionExampleScenario.node[60].veinsmobility  speed  ETV
vector 47457  IntersectionExampleScenario.node[61].veinsmobility  speed  ETV
vector 47451  IntersectionExampleScenario.node[60].veinsmobility  acceleration  ETV
vector 47452  IntersectionExampleScenario.node[60].veinsmobility  co2emission  ETV
vector 47458  IntersectionExampleScenario.node[61].veinsmobility  acceleration  ETV
vector 47459  IntersectionExampleScenario.node[61].veinsmobility  co2emission  ETV
vector 47462  IntersectionExampleScenario.node[62].veinsmobility  posx  ETV
vector 47463  IntersectionExampleScenario.node[62].veinsmobility  posy  ETV
vector 47464  IntersectionExampleScenario.node[62].veinsmobility  speed  ETV
vector 47465  IntersectionExampleScenario.node[62].veinsmobility  acceleration  ETV
vector 47466  IntersectionExampleScenario.node[62].veinsmobility  co2emission  ETV
47396	1702399 5648 15493 18678 185.75 227.25 167 0.973 10.916047529558 481.81844994553 2347.1621631059
47395	1708047 5131 15493 18678 185.75 227.25 167 -3.2858963012695 2.5 34.437047958374 246.25479750237
47394	1713178 5571 15465 18678 185.5 227.25 168 5.6500000953674 14.625 2178.0289516449 29276.547911342
47393	1718749 5907 15436 18678 185.25 227.25 169 237.97735595703 483.14999389648 73014.282897949 32512902.699952
47392	1724656 5889 15436 18678 185.25 227.25 169 184.17810058594 483.14999389648 67220.867340088 28539545.287848
47347	1730545 8503 13270 18985 161.25 231.25 281 0.973 11.648172402475 650.47323952256 2999.34469623
47346	1739048 7401 13270 18985 161.25 231.25 281 -13.400615692139 4 38.341367721558 629.77529301134
47345	1746449 7912 13253 18985 161 231.25 282 0 15.64999961853 2177.944852829 30847.813563909
47344	1754361 9835 13236 18985 160.75 231.25 283 486.85000610352 733.04777526855 145960.29953003 76382447.232574
47343	1764196 9902 13236 18985 160.75 231.25 283 486.63604736328 785.82187652588 153003.36501312 84843259.334915
47361	1774098 8379 13832 19158 169.25 234.25 261 0.973 11.648172402475 616.56749843118 2918.0473581704
47360	1782477 8873 13832 19158 169.25 234.25 261 -3.9621376991272 2.5 38.001859664917 335.11851300199
47359	1791350 8828 13811 19158 169 234.25 262 0 15.64999961853 2178.6095692255 28604.865382005
47358	1800178 9191 13790 19158 168.75 234.25 263 486.85000610352 731.69352722168 136172.74960327 71578021.834533
47357	1809369 9180 13790 19158 168.75 234.25 263 486.67144775391 785.82187652588 144388.62937164 81264728.597212
47382	1818549 7681 14422 19223 175.75 235.5 240 0.973 11.990504229548 606.48408179949 3070.9325619344
47381	1826230 8016 14422 19223 175.75 235.5 240 -3.842809677124 2.5 39.869146347046 346.21873852744
47380	1834246 8215 14395 19223 175.5 235.5 241 0 16.125 2211.9234374445 29151.499557629
47379	1842461 8471 14368 19223 175.25 235.5 242 486.85000610352 486.85000610352 117817.70147705 57359548.683204
47378	1850932 8449 14368 19223 175.25 235.5 242 237.76440429688 785.82187652588 126617.75507355 70340576.524868
vector 47469  IntersectionExampleScenario.node[63].veinsmobility  posx  ETV
vector 47470  IntersectionExampleScenario.node[63].veinsmobility  posy  ETV
vector 47471  IntersectionExampleScenario.node[63].veinsmobility  speed  ETV
47403	1859613 5932 16147 19394 193.5 238.75 182 0.973 11.450879080643 538.62609135198 2855.269912088
47402	1865545 5941 16147 19394 193.5 238.75 182 -2.2594394683838 2.5 36.98334312439 302.10865727046
47401	1871486 6116 16128 19394 193.25 238.75 183 4.4861245155334 15.375 2204.263666153 28793.837880915
47400	1877602 6434 16109 19394 193 238.75 184 238.02032470703 486.85000610352 81073.381500244 36740145.79614
47399	1884036 6427 16109 19394 193 238.75 184 483.14999389648 785.82187652588 104568.84470367 61248519.797953
vector 47472  IntersectionExampleScenario.node[63].veinsmobility  acceleration  ETV
vector 47473  IntersectionExampleScenario.node[63].veinsmobility  co2emission  ETV
vector 47476  IntersectionExampleScenario.node[64].veinsmobility  posx  ETV
vector 47477  IntersectionExampleScenario.node[64].veinsmobility  posy  ETV
vector 47478  IntersectionExampleScenario.node[64].veinsmobility  speed  ETV
vector 47479  IntersectionExampleScenario.node[64].veinsmobility  acceleration  ETV
vector 47480  IntersectionExampleScenario.node[64].veinsmobility  co2emission  ETV
47389	1891033 7486 15493 19782 185.75 245.5 240 0.973 11.36141391502 599.43676604097 2820.4728359632
47388	1898519 6739 15493 19782 185.75 245.5 240 -7.4570107460022 4 37.32285118103 467.27675203522
47387	1905258 7119 15465 19782 185.5 245.5 241 0 15.25 2179.3544102907 30207.236966131
47386	1912377 8443 15436 19782 185.25 245.5 242 184.17810058594 483.36395263672 101996.98120117 45036270.432394
47385	1920820 8407 15436 19782 185.25 245.5 242 486.85000610352 733.68673706055 126168.52577209 66861474.341351
47410	1929227 6178 16529 19844 199 246.75 192 0.973 11.54047740176 540.40895207351 2763.872983328
47409	1935405 6293 16529 19844 199 246.75 192 -2.1354446411133 2.5 37.15309715271 298.36692636719
47408	1941698 6567 16512 19844 198.75 246.75 193 1.7599990367889 15.5 2222.4875489473 29423.251007428
47407	1948265 6763 16495 19844 198.5 246.75 194 184.17810058594 734.85328674316 87167.494171143 43413467.227867
47406	1955028 6791 16495 19844 198.5 246.75 194 486.85000610352 486.85000610352 94448.901184082 45982448.117941
vector 47483  IntersectionExampleScenario.node[65].veinsmobility  posx  ETV
vector 47484  IntersectionExampleScenario.node[65].veinsmobility  posy  ETV
47417	1961973 6022 16758 19866 202.5 247.25 180 0.973 11.648172402475 553.06506328859 2822.1921382624
47416	1967995 5850 16758 19866 202.5 247.25 180 -7.7750473022461 4 38.511121749878 473.78265060686
47415	1973845 6185 16741 19866 202.25 247.25 181 0 15.64999961853 2209.0953980684 31119.401734717
47414	1980030 6356 16724 19866 202 247.25 182 483.14999389648 785.82187652588 102404.51483917 59499765.175767
47413	1986386 6358 16724 19866 202 247.25 182 483.14999389648 735.34706115723 96486.400726318 52183410.620551
vector 47485  IntersectionExampleScenario.node[65].veinsmobility  speed  ETV
vector 47486  IntersectionExampleScenario.node[65].veinsmobility  acceleration  ETV
vector 47487  IntersectionExampleScenario.node[65].veinsmobility  co2emission  ETV
vector 47490  IntersectionExampleScenario.node[66].veinsmobility  posx  ETV
vector 47491  IntersectionExampleScenario.node[66].veinsmobility  posy  ETV
vector 47492  IntersectionExampleScenario.node[66].veinsmobility  speed  ETV
vector 47493  IntersectionExampleScenario.node[66].veinsmobility  acceleration  ETV
vector 47494  IntersectionExampleScenario.node[66].veinsmobility  co2emission  ETV
47424	1993392 6042 16949 20008 205.25 249.75 179 0.973 11.648172402475 549.84657500807 2860.3872611114
47423	1999434 5741 16949 20008 205.25 249.75 179 -4.5 2.5000009536743 38.171613693237 433.46781535376
47422	2005175 6123 16930 20008 205 249.75 180 1.4688963890076 15.64999961853 2268.9030873775 31588.177772352
47421	2011298 6315 16911 20008 204.75 249.75 181 482.95971679688 800.04531860352 103282.11373901 61011854.111935
47420	2017613 6330 16911 20008 204.75 249.75 181 483.14999389648 734.75308227539 95987.106781006 51931772.546833
vector 47497  IntersectionExampleScenario.node[67].veinsmobility  posx  ETV
vector 47498  IntersectionExampleScenario.node[67].veinsmobility  posy  ETV
vector 47499  IntersectionExampleScenario.node[67].veinsmobility  speed  ETV
vector 47500  IntersectionExampleScenario.node[67].veinsmobility  acceleration  ETV
vector 47501  IntersectionExampleScenario.node[67].veinsmobility  co2emission  ETV
vector 47504  IntersectionExampleScenario.node[68].veinsmobility  posx  ETV
vector 47505  IntersectionExampleScenario.node[68].veinsmobility  posy  ETV
vector 47506  IntersectionExampleScenario.node[68].veinsmobility  speed  ETV
vector 47507  IntersectionExampleScenario.node[68].veinsmobility  acceleration  ETV
vector 47508  IntersectionExampleScenario.node[68].veinsmobility  co2emission  ETV
vector 47511  IntersectionExampleScenario.node[69].veinsmobility  posx  ETV
vector 47512  IntersectionExampleScenario.node[69].veinsmobility  posy  ETV
vector 47518  IntersectionExampleScenario.node[70].veinsmobility  posx  ETV
vector 47519  IntersectionExampleScenario.node[70].veinsmobility  posy  ETV
vector 47513  IntersectionExampleScenario.node[69].veinsmobility  speed  ETV
vector 47520  IntersectionExampleScenario.node[70].veinsmobility  speed  ETV
vector 47514  IntersectionExampleScenario.node[69].veinsmobility  acceleration  ETV
vector 47515  IntersectionExampleScenario.node[69].veinsmobility  co2emission  ETV
vector 47521  IntersectionExampleScenario.node[70].veinsmobility  acceleration  ETV
vector 47522  IntersectionExampleScenario.node[70].veinsmobility  co2emission  ETV
47445	2025547 5235 18019 20507 219 257 153 0.973 11.648172402475 472.36109078316 2472.4626324617
47444	2030782 4766 18019 20507 219 257 153 -3.1343994140625 2.5 38.850629806519 190.00306334647
47443	2035548 5162 18000 20507 218.75 257 154 5.6500000953674 15.64999961853 2212.972902298 32466.918732143
47442	2040710 5393 17981 20507 218.5 257 155 184.17810058594 732.23753356934 69432.670806885 35197366.817501
47441	2046103 5424 17981 20507 218.5 257 155 486.85000610352 486.85000610352 75461.750946045 36738553.908664
47459	2051527 5546 18138 20843 220.5 260.75 162 0.973 11.54047740176 472.10679474711 2343.0580982433
47458	2057073 5060 18138 20843 220.5 260.75 162 -3.6741828918457 2.5 36.98334312439 182.82782765368
47457	2062133 5467 18117 20843 220.25 260.75 163 5.6500000953674 15.5 2296.7731027603 32931.845957367
47456	2067600 5698 18095 20843 220 260.75 164 163.88433837891 733.02795410156 71976.668151855 36261224.308403
47455	2073298 5740 18095 20843 220 260.75 164 486.85000610352 486.85000610352 79843.401000977 38871760.264651
47431	2079038 7060 17086 20981 207 262.5 223 0.973 11.450879080643 585.30978666166 2845.6292975344
47430	2086098 6411 17086 20981 207 262.5 223 -8.6750478744507 4 37.15309715271 495.06900427988
47429	2092509 6826 17065 20981 206.75 262.5 224 0 15.375 2210.4323368073 30831.972820608
47428	2099335 7875 17044 20981 206.5 262.5 225 483.14999389648 483.14999389648 108708.74862671 52522631.235489
47427	2107210 7847 17044 20981 206.5 262.5 225 184.17810058594 733.24285888672 102482.46888733 50903206.861215
vector 47525  IntersectionExampleScenario.node[71].veinsmobility  posx  ETV
vector 47526  IntersectionExampleScenario.node[71].veinsmobility  posy  ETV
vector 47527  IntersectionExampleScenario.node[71].veinsmobility  speed  ETV
vector 47528  IntersectionExampleScenario.node[71].veinsmobility  acceleration  ETV
vector 47529  IntersectionExampleScenario.node[71].veinsmobility  co2emission  ETV
vector 47532  IntersectionExampleScenario.node[72].veinsmobility  posx  ETV
vector 47533  IntersectionExampleScenario.node[72].veinsmobility  posy  ETV
vector 47539  IntersectionExampleScenario.node[73].veinsmobility  posx  ETV
vector 47540  IntersectionExampleScenario.node[73].veinsmobility  posy  ETV
vector 47534  IntersectionExampleScenario.node[72].veinsmobility  speed  ETV
vector 47535  IntersectionExampleScenario.node[72].veinsmobility  acceleration  ETV
vector 47536  IntersectionExampleScenario.node[72].veinsmobility  co2emission  ETV
vector 47541  IntersectionExampleScenario.node[73].veinsmobility  speed  ETV
vector 47542  IntersectionExampleScenario.node[73].veinsmobility  acceleration  ETV
vector 47543  IntersectionExampleScenario.node[73].veinsmobility  co2emission  ETV
vector 47546  IntersectionExampleScenario.node[74].veinsmobility  posx  ETV
vector 47547  IntersectionExampleScenario.node[74].veinsmobility  posy  ETV
vector 47548  IntersectionExampleScenario.node[74].veinsmobility  speed  ETV
vector 47553  IntersectionExampleScenario.node[75].veinsmobility  posx  ETV
vector 47554  IntersectionExampleScenario.node[75].veinsmobility  posy  ETV
vector 47549  IntersectionExampleScenario.node[74].veinsmobility  acceleration  ETV
vector 47550  IntersectionExampleScenario.node[74].veinsmobility  co2emission  ETV
vector 47560  IntersectionExampleScenario.node[76].veinsmobility  posx  ETV
vector 47561  IntersectionExampleScenario.node[76].veinsmobility  posy  ETV
vector 47555  IntersectionExampleScenario.node[75].veinsmobility  speed  ETV
47438	2117047 7615 17683 21914 214.5 276 247 0.973 11.810082123732 622.35629951724 3088.4352800921
47437	2124662 7044 17683 21914 214.5 276 247 -9.0596437454224 4 39.359884262085 500.00740959224
47436	2131706 7212 17662 21914 214.25 276 248 0 15.875 2178.4695601463 30997.152766178
47435	2138918 8644 17641 21914 214 276 249 486.85000610352 732.88471984863 129264.70834351 68160410.59559
47434	2147562 8697 17641 21914 214 276 249 486.63604736328 785.82187652588 135995.86330414 76318725.933136
vector 47556  IntersectionExampleScenario.node[75].veinsmobility  acceleration  ETV
vector 47557  IntersectionExampleScenario.node[75].veinsmobility  co2emission  ETV
vector 47562  IntersectionExampleScenario.node[76].veinsmobility  speed  ETV
vector 47563  IntersectionExampleScenario.node[76].veinsmobility  acceleration  ETV
vector 47564  IntersectionExampleScenario.node[76].veinsmobility  co2emission  ETV
47452	2156675 7360 18138 21977 220.5 276.75 226 0.973 11.990504229548 612.85745892306 3144.2374757489
47451	2164035 7595 18138 21977 220.5 276.75 226 -3.8211486339569 2.5000002384186 41.227170944214 379.98225092611
47450	2171630 7773 18117 21977 220.25 276.75 227 0 16.125 2220.2206258103 31494.648988924
47449	2179403 7980 18095 21977 220 276.75 228 486.85000610352 486.85000610352 111001.8013916 54041227.685002
47448	2187383 7963 18095 21977 220 276.75 228 235.77233886719 785.82187652588 118072.4562149 65193037.458771
47466	2195346 6777 18594 22170 226.25 279.25 213 0.97223939240464 11.648172402475 574.22055714856 2926.2035875868
47465	2202123 6982 18594 22170 226.25 279.25 213 -3.8576114177704 2.5000000596046 38.680875778198 352.6210853319
47464	2209105 7288 18573 22170 226 279.25 214 0 15.64999961853 2211.5663841441 29021.433871641
47463	2216393 7525 18552 22170 225.75 279.25 215 486.85000610352 486.85000610352 104672.75131226 50959929.615243
47462	2223918 7508 18552 22170 225.75 279.25 215 237.86865234375 785.82187652588 112531.75580597 63032865.64037
vector 47567  IntersectionExampleScenario.node[77].veinsmobility  posx  ETV
vector 47568  IntersectionExampleScenario.node[77].veinsmobility  posy  ETV
vector 47569  IntersectionExampleScenario.node[77].veinsmobility  speed  ETV
vector 47574  IntersectionExampleScenario.node[78].veinsmobility  posx  ETV
vector 47575  IntersectionExampleScenario.node[78].veinsmobility  posy  ETV
vector 47570  IntersectionExampleScenario.node[77].veinsmobility  acceleration  ETV
vector 47571  IntersectionExampleScenario.node[77].veinsmobility  co2emission  ETV
vector 47576  IntersectionExampleScenario.node[78].veinsmobility  speed  ETV
vector 47577  IntersectionExampleScenario.node[78].veinsmobility  acceleration  ETV
vector 47578  IntersectionExampleScenario.node[78].veinsmobility  co2emission  ETV
47480	2232228 5166 19654 22376 243.25 281.75 155 0.94600815583079 12.353032912318 584.31364907406 4001.853298019
47479	2237394 4800 19654 22376 243.25 281.75 155 -3.6539344787598 2.5 41.566686630249 375.85454767172
47478	2242194 5136 19639 22376 243 281.75 156 5.6500000953674 16.625 2202.7432308197 32231.275001207
47477	2247330 5485 19624 22376 242.75 281.75 157 238.59924316406 486.85000610352 68542.363830566 30831054.970747
47476	2252815 5490 19624 22376 242.75 281.75 157 483.14999389648 785.82187652588 89908.290000916 53217487.382962
vector 47581  IntersectionExampleScenario.node[79].veinsmobility  posx  ETV
vector 47582  IntersectionExampleScenario.node[79].veinsmobility  posy  ETV
47494	2258459 5494 19948 23034 248.75 289 162 0.973 11.36141391502 503.57418847957 2654.9101363291
47493	2263953 5303 19948 23034 248.75 289 162 -3.5310325622559 2.5 37.492597579956 272.84141303078
47492	2269256 5380 19933 23034 248.5 289 163 5.6500000953674 15.25 2193.3438186646 30802.734821567
47491	2274636 5734 19918 23034 248.25 289 164 486.85000610352 735.45811462402 88298.059524536 48500697.323904
47490	2280370 5732 19918 23034 248.25 289 164 486.73620605469 785.82187652588 93804.959465027 55418402.843954
vector 47583  IntersectionExampleScenario.node[79].veinsmobility  speed  ETV
vector 47584  IntersectionExampleScenario.node[79].veinsmobility  acceleration  ETV
vector 47585  IntersectionExampleScenario.node[79].veinsmobility  co2emission  ETV
47473	2286349 6606 19409 23149 239 290.25 206 0.973 11.648172402475 575.10096353784 2920.8014560903
47472	2292955 5988 19409 23149 239 290.25 206 -7.03919506073 4 38.341367721558 476.33694168539
47471	2298943 6380 19394 23149 238.75 290.25 207 0 15.64999961853 2177.4668385983 30628.127941716
47470	2305323 7276 19379 23149 238.5 290.25 208 486.63604736328 785.82187652588 115651.15782928 66241282.378365
47469	2312599 7215 19379 23149 238.5 290.25 208 236.95220947266 483.14999389648 92313.451049805 41986622.489317
47487	2319814 5613 19892 23236 247.75 291.25 175 0.973 12.553400930962 561.2237878772 3427.96359421
47486	2325427 5659 19892 23236 247.75 291.25 175 -2.2405128479004 2.5 42.754949569702 318.77357112309
47485	2331086 5849 19879 23236 247.5 291.25 176 3.20543217659 16.89999961853 2212.4495716095 31259.594873276
47484	2336935 6177 19866 23236 247.25 291.25 177 483.12066650391 785.82187652588 100280.34920502 58575515.73664
47483	2343112 6190 19866 23236 247.25 291.25 177 483.14999389648 733.95114135742 93437.716247559 50291942.689621
vector 47588  IntersectionExampleScenario.node[80].veinsmobility  posx  ETV
vector 47589  IntersectionExampleScenario.node[80].veinsmobility  posy  ETV
vector 47590  IntersectionExampleScenario.node[80].veinsmobility  speed  ETV
vector 47591  IntersectionExampleScenario.node[80].veinsmobility  acceleration  ETV
vector 47592  IntersectionExampleScenario.node[80].veinsmobility  co2emission  ETV
47508	2349703 5183 20343 23391 255 293 153 0.973 12.26218747632 532.84197453192 3183.7064983971
47507	2354886 4715 20343 23391 255 293 153 -3.5192279815674 2.5 42.415441513062 308.6402017711
47506	2359601 5060 20324 23391 254.75 293 154 5.6500000953674 16.5 2188.9483504295 32812.931044261
47505	2364661 5389 20305 23391 254.5 293 155 184.17810058594 483.14999389648 61569.700561523 26151924.690711
47504	2370050 5385 20305 23391 254.5 293 155 486.85000610352 734.24446105957 83232.059494019 45579675.524517
vector 47595  IntersectionExampleScenario.node[81].veinsmobility  posx  ETV
vector 47596  IntersectionExampleScenario.node[81].veinsmobility  posy  ETV
vector 47597  IntersectionExampleScenario.node[81].veinsmobility  speed  ETV
vector 47598  IntersectionExampleScenario.node[81].veinsmobility  acceleration  ETV
vector 47599  IntersectionExampleScenario.node[81].veinsmobility  co2emission  ETV
vector 47602  IntersectionExampleScenario.node[82].veinsmobility  posx  ETV
vector 47603  IntersectionExampleScenario.node[82].veinsmobility  posy  ETV
vector 47604  IntersectionExampleScenario.node[82].veinsmobility  speed  ETV
vector 47605  IntersectionExampleScenario.node[82].veinsmobility  acceleration  ETV
vector 47606  IntersectionExampleScenario.node[82].veinsmobility  co2emission  ETV
47529	2376237 5194 21198 24339 265.5 303.75 154 0.973 12.26218747632 524.22206676954 3163.5425413935
47528	2381431 5126 21198 24339 265.5 303.75 154 -3.9001331329346 2.5 41.227170944214 309.8243033861
47527	2386557 5079 21179 24339 265.25 303.75 155 5.6500000953674 16.5 2176.822781086 32179.505761123
47526	2391636 5439 21160 24339 265 303.75 156 184.17810058594 483.15753173828 61936.604278564 26291933.639987
47525	2397075 5456 21160 24339 265 303.75 156 486.85000610352 731.49125671387 83681.048278809 45759987.043135
47522	2402531 6586 20484 24664 256.75 307.5 204 0.973 11.36141391502 564.40876604097 2786.3905919632
47521	2409117 5982 20484 24664 256.75 307.5 204 -7.457010269165 4 37.32285118103 467.27674674445
47520	2415099 6362 20461 24664 256.5 307.5 205 0 15.25 2179.3544082642 30207.236950068
47519	2421461 7146 20438 24664 256.25 307.5 206 236.31317138672 483.14999389648 91178.071289062 41388711.462558
47518	2428607 7183 20438 24664 256.25 307.5 206 184.17810058594 483.36395263672 85019.380981445 37029634.065148
47543	2435790 5280 21788 25010 274.25 312.5 154 0.97223939240464 11.648172402475 472.90647513048 2485.6605207978
47542	2441070 5099 21788 25010 274.25 312.5 154 -3.1347618103027 2.5 38.680875778198 189.57381054617
47541	2446169 5190 21771 25010 274 312.5 155 5.6500000953674 15.64999961853 2225.140422821 32602.687014154
47540	2451359 5460 21754 25010 273.75 312.5 156 483.14999389648 483.14999389648 75371.399047852 36415690.989939
47539	2456819 5433 21754 25010 273.75 312.5 156 184.17810058594 735.27601623535 70122.893127441 35687699.859496
vector 47609  IntersectionExampleScenario.node[83].veinsmobility  posx  ETV
vector 47610  IntersectionExampleScenario.node[83].veinsmobility  posy  ETV
vector 47611  IntersectionExampleScenario.node[83].veinsmobility  speed  ETV
vector 47612  IntersectionExampleScenario.node[83].veinsmobility  acceleration  ETV
vector 47613  IntersectionExampleScenario.node[83].veinsmobility  co2emission  ETV
47564	2462653 5411 21956 25232 276.5 316 159 0.973 11.90022389248 527.00002637282 3036.9006122047
47563	2468064 4932 21956 25232 276.5 316 159 -4.5 2.5 39.699392318726 281.6756234768
47562	2472996 5304 21935 25232 276.25 316 160 5.6500000953674 16 2273.9484987259 33334.861810621
47561	2478300 5628 21914 25232 276 316 161 483.14999389648 732.70614624023 85989.401779175 46871870.045577
47560	2483928 5603 21914 25232 276 316 161 167.29217529297 486.87435913086 62951.950195312 26628806.962889
vector 47616  IntersectionExampleScenario.node[84].veinsmobility  posx  ETV
vector 47617  IntersectionExampleScenario.node[84].veinsmobility  posy  ETV
vector 47618  IntersectionExampleScenario.node[84].veinsmobility  speed  ETV
vector 47619  IntersectionExampleScenario.node[84].veinsmobility  acceleration  ETV
vector 47620  IntersectionExampleScenario.node[84].veinsmobility  co2emission  ETV
47501	2489932 8275 20237 25600 253.5 321.5 273 0.973 11.450879080643 633.63020482674 2937.8231294329
47500	2498207 7674 20237 25600 253.5 321.5 273 -8.4378242492676 4 36.98334312439 486.57645520287
47499	2505881 7875 20220 25600 253.25 321.5 274 0 15.375 2208.2099061012 30761.108903422
47498	2513756 9624 20203 25600 253 321.5 275 486.85000610352 486.85000610352 133883.75167847 65181305.321823
47497	2523380 9619 20203 25600 253 321.5 275 237.32635498047 785.82187652588 140718.02030182 76237272.419428
47515	2532999 8458 20484 25644 256.75 322.5 264 0.96570424077922 12.097343895772 680.80443864487 3319.238461052
47514	2541457 8609 20484 25644 256.75 322.5 264 -4.5 2.5 42.490713119507 471.78432237342
47513	2550066 8581 20461 25644 256.5 322.5 265 0 16.391750335693 2257.3482644688 32862.213145741
47512	2558647 9311 20438 25644 256.25 322.5 266 486.85000610352 486.85000610352 129502.10162354 63048098.965836
47511	2567958 9283 20438 25644 256.25 322.5 266 237.77575683594 797.07032012939 137823.65107727 75733607.46659
47557	2577241 6487 21935 25784 276.25 326 200 0.973 10.756497587458 533.03203457031 2461.8115310534
47556	2583728 6710 21935 25784 276.25 326 200 -4.5 2.5 34.606801986694 313.76235053316
47555	2590438 6891 21914 25784 276 326 201 1.821760892868 14.798655509949 2210.0309969187 28070.472350173
47554	2597329 7069 21894 25784 275.75 326 202 486.85000610352 486.85000610352 98343.70123291 47878631.545484
47553	2604398 7046 21894 25784 275.75 326 202 238.05993652344 785.82187652588 105388.17192078 59303068.850823
47571	2611444 6130 22307 25826 281 327.5 187 0.973 11.450879080643 563.78371188665 2900.4035729626
47570	2617574 6006 22307 25826 281 327.5 187 -4.5 2.5000019073486 38.680875778198 361.70174534223
47569	2623580 6286 22286 25826 280.75 327.5 188 3.8403356075287 15.375 2209.926322937 29126.358968783
47568	2629866 6589 22265 25826 280.5 327.5 189 236.36810302734 486.85000610352 83615.205535889 38019737.341767
47567	2636455 6597 22265 25826 280.5 327.5 189 483.14999389648 785.82187652588 107385.97670746 62824269.977503
vector 47623  IntersectionExampleScenario.node[85].veinsmobility  posx  ETV
vector 47624  IntersectionExampleScenario.node[85].veinsmobility  posy  ETV
vector 47625  IntersectionExampleScenario.node[85].veinsmobility  speed  ETV
vector 47626  IntersectionExampleScenario.node[85].veinsmobility  acceleration  ETV
vector 47627  IntersectionExampleScenario.node[85].veinsmobility  co2emission  ETV
vector 47630  IntersectionExampleScenario.node[86].veinsmobility  posx  ETV
vector 47631  IntersectionExampleScenario.node[86].veinsmobility  posy  ETV
vector 47632  IntersectionExampleScenario.node[86].veinsmobility  speed  ETV
vector 47633  IntersectionExampleScenario.node[86].veinsmobility  acceleration  ETV
vector 47634  IntersectionExampleScenario.node[86].veinsmobility  co2emission  ETV
47536	2643854 7562 21771 26086 274 335 245 0.973 11.90022389248 628.69297800749 3153.3574108201
47535	2651416 6823 21771 26086 274 335 245 -6.9388580322266 4 39.869146347046 486.92859168984
47534	2658239 7213 21754 26086 273.75 335 246 0 16 2219.9751734734 32151.358126084
47533	2665452 8618 21738 26086 273.5 335 247 184.17810058594 735.07762145996 112942.82873535 55783471.137825
47532	2674070 8644 21738 26086 273.5 335 247 486.85000610352 486.85000610352 120251.95150757 58544663.325419
47550	2682714 7382 21894 26086 275.75 335 238 0.973 11.90022389248 616.87923327304 3126.7130988054
47549	2690096 6892 21894 26086 275.75 335 238 -7.6570835113525 4 39.190130233765 499.06182730084
47548	2696988 7050 21875 26086 275.5 335 239 0 16 2210.5708651543 31764.182444722
47547	2704038 8384 21856 26086 275.25 335 240 237.0615234375 785.82187652588 123284.30432892 67453091.948283
47546	2712422 8400 21856 26086 275.25 335 240 483.14999389648 483.14999389648 115955.99853516 56024139.984521
vector 47637  IntersectionExampleScenario.node[87].veinsmobility  posx  ETV
vector 47638  IntersectionExampleScenario.node[87].veinsmobility  posy  ETV
vector 47639  IntersectionExampleScenario.node[87].veinsmobility  speed  ETV
vector 47640  IntersectionExampleScenario.node[87].veinsmobility  acceleration  ETV
vector 47641  IntersectionExampleScenario.node[87].veinsmobility  co2emission  ETV
47592	2721223 5926 23345 26212 292.5 337.75 182 0.973 11.648172402475 546.42753320334 2947.586178678
47591	2727149 5763 23345 26212 292.5 337.75 182 -2.8052406311035 2.5 38.341367721558 320.56229678404
47590	2732912 6085 23322 26212 292.25 337.75 183 3.4625067710876 15.64999961853 2189.5054519176 29125.494805857
47589	2738997 6405 23299 26212 292 337.75 184 184.17810058594 483.14999389648 74085.678985596 31614373.429769
47588	2745402 6439 23299 26212 292 337.75 184 486.85000610352 734.09159851074 97836.968688965 53007188.064038
47585	2751841 6331 23080 26223 289.5 338 195 0.973 11.200708441096 532.76817981045 2577.8711289236
47584	2758172 6570 23080 26223 289.5 338 195 -2.0914916992188 2.5 35.964826583862 270.26346865934
47583	2764742 6737 23057 26223 289.25 338 196 2.0648546218872 15.02499961853 2221.21210289 28883.607224229
47582	2771479 6877 23034 26223 289 338 197 235.09143066406 785.82187652588 102437.20815277 57574043.62349
47581	2778356 6893 23034 26223 289 338 197 483.14999389648 483.14999389648 95180.548797607 45986481.570628
vector 47644  IntersectionExampleScenario.node[88].veinsmobility  posx  ETV
vector 47645  IntersectionExampleScenario.node[88].veinsmobility  posy  ETV
vector 47651  IntersectionExampleScenario.node[89].veinsmobility  posx  ETV
vector 47652  IntersectionExampleScenario.node[89].veinsmobility  posy  ETV
vector 47646  IntersectionExampleScenario.node[88].veinsmobility  speed  ETV
47599	2785635 5379 23970 26310 299.5 340 163 0.973 12.099024792222 564.65885914395 3416.3467187214
47598	2791014 5196 23970 26310 299.5 340 163 -3.1701202392578 2.5 41.227170944214 321.0352359651
47597	2796210 5450 23947 26310 299.25 340 164 5.6500000953674 16.27499961853 2210.9818649292 31161.423244173
47596	2801660 5763 23924 26310 299 340 165 483.14999389648 785.82187652588 94295.440498352 55636342.343652
47595	2807423 5768 23924 26310 299 340 165 483.14999389648 733.83876037598 87826.685211182 47700896.214753
vector 47647  IntersectionExampleScenario.node[88].veinsmobility  acceleration  ETV
vector 47648  IntersectionExampleScenario.node[88].veinsmobility  co2emission  ETV
vector 47653  IntersectionExampleScenario.node[89].veinsmobility  speed  ETV
vector 47654  IntersectionExampleScenario.node[89].veinsmobility  acceleration  ETV
vector 47655  IntersectionExampleScenario.node[89].veinsmobility  co2emission  ETV
47606	2813607 5094 24316 26401 303.5 341.75 154 0.973 12.553400930962 573.3952009898 3839.7000649228
47605	2818701 4920 24316 26401 303.5 341.75 154 -3.458309173584 2.5 42.754949569702 355.8287632821
[...]
vector 50857  IntersectionExampleScenario.node[547].veinsmobility  posx  ETV
vector 50858  IntersectionExampleScenario.node[547].veinsmobility  posy  ETV
vector 50864  IntersectionExampleScenario.node[548].veinsmobility  posx  ETV
vector 50865  IntersectionExampleScenario.node[548].veinsmobility  posy  ETV
vector 50853  IntersectionExampleScenario.node[546].veinsmobility  acceleration  ETV
vector 50854  IntersectionExampleScenario.node[546].veinsmobility  co2emission  ETV
vector 50859  IntersectionExampleScenario.node[547].veinsmobility  speed  ETV
vector 50866  IntersectionExampleScenario.node[548].veinsmobility  speed  ETV
vector 50860  IntersectionExampleScenario.node[547].veinsmobility  acceleration  ETV
vector 50861  IntersectionExampleScenario.node[547].veinsmobility  co2emission  ETV
vector 50867  IntersectionExampleScenario.node[548].veinsmobility  acceleration  ETV
vector 50868  IntersectionExampleScenario.node[548].veinsmobility  co2emission  ETV
vector 50871  IntersectionExampleScenario.node[549].veinsmobility  posx  ETV
vector 50872  IntersectionExampleScenario.node[549].veinsmobility  posy  ETV
vector 50873  IntersectionExampleScenario.node[549].veinsmobility  speed  ETV
vector 50874  IntersectionExampleScenario.node[549].veinsmobility  acceleration  ETV
vector 50875  IntersectionExampleScenario.node[549].veinsmobility  co2emission  ETV
50735	19212006 8958 159796 168237 1679 1747.75 276 0.973 11.200708441096 627.33152694315 2765.6769750912
50734	19220964 8154 159796 168237 1679 1747.75 276 -8.8170804977417 4 36.134572982788 473.06262659359
50733	19229118 8527 159763 168237 1678.75 1747.75 277 0 15.02499961853 2208.468018055 30345.283862668
50732	19237645 10287 159730 168237 1678.5 1747.75 278 483.14999389648 483.14999389648 134315.69830322 64894628.815404
50731	19247932 10254 159730 168237 1678.5 1747.75 278 184.17810058594 732.88059997559 127483.99473572 62738463.901104
50763	19258186 6888 162623 168594 1700.25 1750.25 201 0.973 11.200708441096 547.36146546841 2643.5893340939
50762	19265074 7049 162623 168594 1700.25 1750.25 201 -4.5 2.5 36.813589096069 311.42972010993
50761	19272123 7340 162588 168594 1700 1750.25 202 0.93785989284515 15.02499961853 2221.4465515614 29130.255821224
50760	19279463 7511 162553 168594 1699.75 1750.25 203 483.14999389648 483.14999389648 98079.448760986 47387085.070241
50759	19286974 7473 162553 168594 1699.75 1750.25 203 184.17810058594 734.86630249023 91375.52053833 45397487.647235
vector 50878  IntersectionExampleScenario.node[550].veinsmobility  posx  ETV
vector 50879  IntersectionExampleScenario.node[550].veinsmobility  posy  ETV
vector 50880  IntersectionExampleScenario.node[550].veinsmobility  speed  ETV
vector 50881  IntersectionExampleScenario.node[550].veinsmobility  acceleration  ETV
vector 50882  IntersectionExampleScenario.node[550].veinsmobility  co2emission  ETV
vector 50885  IntersectionExampleScenario.node[551].veinsmobility  posx  ETV
vector 50886  IntersectionExampleScenario.node[551].veinsmobility  posy  ETV
vector 50892  IntersectionExampleScenario.node[552].veinsmobility  posx  ETV
vector 50893  IntersectionExampleScenario.node[552].veinsmobility  posy  ETV
vector 50887  IntersectionExampleScenario.node[551].veinsmobility  speed  ETV
vector 50894  IntersectionExampleScenario.node[552].veinsmobility  speed  ETV
vector 50888  IntersectionExampleScenario.node[551].veinsmobility  acceleration  ETV
vector 50889  IntersectionExampleScenario.node[551].veinsmobility  co2emission  ETV
vector 50895  IntersectionExampleScenario.node[552].veinsmobility  acceleration  ETV
vector 50896  IntersectionExampleScenario.node[552].veinsmobility  co2emission  ETV
50721	19295665 10820 159338 169986 1675.5 1761.5 345 0.973 11.36141391502 724.18975616769 3146.0764432121
50720	19306485 10517 159338 169986 1675.5 1761.5 345 -20.151882171631 4 37.32285118103 944.62307498849
50719	19317002 10703 159305 169986 1675.25 1761.5 346 0 15.25 2124.5401410758 26368.416487189
50718	19327705 12774 159272 169986 1675 1761.5 347 486.85000610352 733.68672180176 177287.77633667 91748881.717628
50717	19340479 12818 159272 169986 1675 1761.5 347 486.63604736328 771.6356048584 187049.38161469 102757865.76655
50714	19353297 11372 159064 170121 1673.5 1762.75 358 0.973 11.450879080643 775.98120262484 3313.8942914394
50713	19364669 11018 159064 170121 1673.5 1762.75 358 -4.5 2.5 37.32285118103 616.9141268837
50712	19375687 11367 159029 170121 1673.25 1762.75 359 0 15.375 2285.4761560131 27480.163543589
50711	19387054 13315 158994 170121 1673 1762.75 360 237.86834716797 486.85000610352 166796.9581604 78487900.852856
50710	19400369 13294 158994 170121 1673 1762.75 360 483.13439941406 807.38302612305 199422.99908447 113380215.80716
50728	19413663 11537 159665 170299 1678 1764.5 347 0.973 11.450879080643 759.69273477797 3207.1578690577
50727	19425200 11733 159665 170299 1678 1764.5 347 -4.5 2.5 40.208654403687 539.14079158655
50726	19436933 11996 159632 170299 1677.75 1764.5 348 0 15.708119392395 2291.3747290485 28804.21300838
50725	19448929 12904 159599 170299 1677.5 1764.5 349 235.27679443359 486.85000610352 161629.5362854 76043561.416371
50724	19461833 12889 159599 170299 1677.5 1764.5 349 483.14999389648 805.00054168701 192957.68727112 109140769.20503
50749	19474722 11724 160221 170536 1682.25 1767 340 0.973 11.450879080643 735.70056550751 3019.1923850589
50748	19486446 11840 160221 170536 1682.25 1767 340 -4.5 2.5000009536743 38.511121749878 542.60681681299
50747	19498286 12114 160186 170536 1682 1767 341 0 15.375 2263.7565602399 28608.263238223
50746	19510400 12634 160151 170536 1681.75 1767 342 237.08135986328 486.85000610352 158129.61166382 74301758.019187
50745	19523034 12620 160151 170536 1681.75 1767 342 483.14999389648 799.77215576172 189438.22053528 107190551.97271
50791	19535654 6872 164674 170705 1718.75 1769 202 0.973 11.54047740176 552.88098203274 2775.232981864
50790	19542526 7015 164674 170705 1718.75 1769 202 -2.9018516540527 2.5 37.15309715271 316.68691783614
50789	19549541 7264 164649 170705 1718.5 1769 203 1.7490342855453 15.5 2222.5501853228 28864.698861072
50788	19556805 7548 164624 170705 1718.25 1769 204 486.85000610352 486.85000610352 99317.401245117 48352677.40237
50787	19564353 7532 164624 170705 1718.25 1769 204 235.64038085938 785.82187652588 106951.67855072 60323089.129082
50812	19571885 6483 165155 170877 1724 1771.25 190 0.93438186594183 12.26218747632 585.39710181123 3263.662732258
50811	19578368 6633 165155 170877 1724 1771.25 190 -4.5 2.5000009536743 41.057416915894 409.20799814337
50810	19585001 6718 165128 170877 1723.75 1771.25 191 2.9714486598969 16.5 2190.9795730114 29419.921344173
50809	19591719 7093 165101 170877 1723.5 1771.25 192 486.85000610352 735.09030151367 101450.87417603 54588641.936896
50808	19598812 7099 165101 170877 1723.5 1771.25 192 486.85000610352 785.82187652588 109009.69911957 63645863.573398
50826	19605911 6030 165750 171010 1729.25 1773 176 0.97223939240464 11.648172402475 540.55027692008 3043.0334527278
50825	19611941 5934 165750 171010 1729.25 1773 176 -3.6435317993164 2.5 38.680875778198 292.51114989743
50824	19617875 6262 165719 171010 1729 1773 177 5.6500000953674 15.64999961853 2207.9891600609 29273.965860595
50823	19624137 6581 165688 171010 1728.75 1773 178 237.13934326172 486.85000610352 78313.446929932 35451768.297252
50822	19630718 6567 165688 171010 1728.75 1773 178 483.12310791016 785.82187652588 101496.32926178 59668797.654098
50777	19637285 8064 164146 171143 1713.5 1774.75 246 0.973 12.099024792222 638.50359261317 3184.0195399891
50776	19645349 7540 164146 171143 1713.5 1774.75 246 -9.2126445770264 4 41.396924972534 514.73920802686
50775	19652889 7655 164117 171143 1713.25 1774.75 247 0 16.27499961853 2183.8476712704 31866.668067088
50774	19660544 9170 164090 171143 1713 1774.75 248 486.63604736328 785.82187652588 135258.26699066 75790165.326057
50773	19669714 9111 164090 171143 1713 1774.75 248 235.93389892578 483.14999389648 111927.82907104 51557326.630384
50770	19678825 8693 163589 171162 1708.25 1775 268 0.973 11.810082123732 650.05843340365 3134.9778633432
50769	19687518 7663 163589 171162 1708.25 1775 268 -18.420349121094 4 39.869146347046 770.18775236994
50768	19695181 8127 163560 171162 1708 1775 269 0 15.875 2183.9604110718 31593.377939833
50767	19703308 9968 163531 171162 1707.75 1775 270 184.17810058594 483.36395263672 115535.03503418 51523594.757663
50766	19713276 9919 163531 171162 1707.75 1775 270 486.85000610352 734.37205505371 139524.26197815 73185998.221636
50784	19723195 8570 164175 171218 1713.75 1775.75 249 0.973 11.990504229548 640.22835685869 3181.521188435
50783	19731765 8872 164175 171218 1713.75 1775.75 249 -3.6826100349426 2.5 41.396924972534 384.80969958264
50782	19740637 8852 164146 171218 1713.5 1775.75 250 0 16.125 2222.5837448165 31540.568330858
50781	19749489 9246 164117 171218 1713.25 1775.75 251 184.17810058594 734.79010009766 113790.02552795 55642373.770607
50780	19758735 9289 164117 171218 1713.25 1775.75 251 486.85000610352 486.85000610352 122199.35153198 59492755.039191
vector 50899  IntersectionExampleScenario.node[553].veinsmobility  posx  ETV
vector 50900  IntersectionExampleScenario.node[553].veinsmobility  posy  ETV
vector 50901  IntersectionExampleScenario.node[553].veinsmobility  speed  ETV
vector 50902  IntersectionExampleScenario.node[553].veinsmobility  acceleration  ETV
vector 50903  IntersectionExampleScenario.node[553].veinsmobility  co2emission  ETV
vector 50906  IntersectionExampleScenario.node[554].veinsmobility  posx  ETV
vector 50907  IntersectionExampleScenario.node[554].veinsmobility  posy  ETV
vector 50908  IntersectionExampleScenario.node[554].veinsmobility  speed  ETV
50798	19768665 7555 165128 171478 1723.75 1779.5 224 0.973 11.810082123732 590.92966088109 3061.2051719358
50797	19776220 7877 165128 171478 1723.75 1779.5 224 -3.7182083129883 2.5000002384186 39.359884262085 359.01169021101
50796	19784097 7935 165101 171478 1723.5 1779.5 225 0 15.875 2187.2882903218 28811.143823034
50795	19792032 8327 165076 171478 1723.25 1779.5 226 184.17810058594 483.14999389648 93118.297607422 40234778.284344
50794	19800359 8356 165076 171478 1723.25 1779.5 226 486.85000610352 733.70304870605 118124.82087708 62778235.813843
vector 50909  IntersectionExampleScenario.node[554].veinsmobility  acceleration  ETV
vector 50910  IntersectionExampleScenario.node[554].veinsmobility  co2emission  ETV
50847	19808886 6200 166681 171617 1737 1781.5 179 0.973 11.648172402475 550.2540406842 3038.4386626097
50846	19815086 6063 166681 171617 1737 1781.5 179 -3.9513168334961 2.5000019073486 38.171613693237 335.16850572239
50845	19821149 6370 166648 171617 1736.75 1781.5 180 5.0569539070129 15.64999961853 2202.86632967 29194.032325709
50844	19827519 6659 166615 171617 1736.5 1781.5 181 184.17810058594 486.85000610352 72658.218383789 30967652.105006
50843	19834178 6689 166615 171617 1736.5 1781.5 181 238.27740478516 486.85000610352 79783.411437988 36164361.06423
50854	19840867 5851 167313 171753 1741.75 1783.5 168 0.973 11.200708441096 495.18010141733 2671.3577820638
50853	19846718 5773 167313 171753 1741.75 1783.5 168 -3.7724571228027 2.5 35.964826583862 242.63472175095
50852	19852491 6033 167278 171753 1741.5 1783.5 169 5.6500000953674 15.02499961853 2217.2114067078 29851.681107417
50851	19858524 6257 167243 171753 1741.25 1783.5 170 184.17810058594 733.34873962402 76163.529693604 38398173.654357
50850	19864781 6291 167243 171753 1741.25 1783.5 170 486.85000610352 486.85000610352 82764.501037598 40293897.835309
50868	19871072 6190 167391 171889 1742.25 1785.5 174 0.973 11.810082123732 560.50477012798 3153.2385072908
50867	19877262 6045 167391 171889 1742.25 1785.5 174 -4.5 2.5 38.850629806519 373.81081401985
50866	19883307 6144 167352 171889 1742 1785.5 175 5.6500000953674 15.875 2272.9921684265 30987.368519193
50865	19889451 6492 167313 171889 1741.75 1785.5 176 160.43438720703 483.14999389648 68315.916351318 28654827.963631
50864	19895943 6504 167313 171889 1741.75 1785.5 176 486.85000610352 731.79777526855 93716.992507935 50843425.646038
vector 50913  IntersectionExampleScenario.node[555].veinsmobility  posx  ETV
vector 50914  IntersectionExampleScenario.node[555].veinsmobility  posy  ETV
vector 50915  IntersectionExampleScenario.node[555].veinsmobility  speed  ETV
vector 50916  IntersectionExampleScenario.node[555].veinsmobility  acceleration  ETV
vector 50917  IntersectionExampleScenario.node[555].veinsmobility  co2emission  ETV
50805	19902853 9011 165128 172399 1723.75 1793 278 0.973 11.200708441096 622.7463390446 2711.4734827063
50804	19911864 8141 165128 172399 1723.75 1793 278 -7.2451009750366 4 35.455564498901 448.19107443402
50803	19920005 8547 165101 172399 1723.5 1793 279 0 15.02499961853 2181.8694725037 29453.478786619
50802	19928552 10296 165076 172399 1723.25 1793 280 235.55383300781 483.14999389648 126622.85018921 58420854.338314
50801	19938848 10330 165076 172399 1723.25 1793 280 184.17810058594 483.36395263672 119705.77798462 53325452.780839
50819	19949178 9218 165456 172454 1726.75 1794 270 0.973 11.200708441096 624.80504256521 2747.4545742763
50818	19958396 9050 165456 172454 1726.75 1794 270 -4.5 2.5 35.964826583862 405.50070336958
50817	19967446 9223 165427 172454 1726.5 1794 271 0 15.02499961853 2272.3822643645 30828.73548875
50816	19976669 10064 165398 172454 1726.25 1794 272 483.14999389648 483.14999389648 131416.79833984 63494025.315791
50815	19986733 10024 165398 172454 1726.25 1794 272 171.40313720703 735.10887145996 122956.5428772 60208277.8748
50840	19996757 8398 166460 172586 1735.25 1796.75 247 0.973 11.200708441096 600.01948441727 2764.1727758583
50839	20005155 8607 166460 172586 1735.25 1796.75 247 -3.968373298645 2.5 36.98334312439 335.92118103048
50838	20013762 8809 166429 172586 1735 1796.75 248 0 15.112024307251 2182.406911632 27967.36683025
50837	20022571 9212 166398 172586 1734.75 1796.75 249 237.20745849609 483.14999389648 111959.49563599 51425354.239183
50836	20031783 9166 166398 172586 1734.75 1796.75 249 184.17810058594 483.14999389648 103512.4465332 44970114.042886
vector 50920  IntersectionExampleScenario.node[556].veinsmobility  posx  ETV
vector 50921  IntersectionExampleScenario.node[556].veinsmobility  posy  ETV
vector 50922  IntersectionExampleScenario.node[556].veinsmobility  speed  ETV
vector 50923  IntersectionExampleScenario.node[556].veinsmobility  acceleration  ETV
vector 50924  IntersectionExampleScenario.node[556].veinsmobility  co2emission  ETV
50833	20041355 8082 166460 172747 1735.25 1800 260 0.973 12.26218747632 636.893912125 3378.7642028338
50832	20049437 7615 166460 172747 1735.25 1800 260 -7.628345489502 4 42.246328353882 545.03524010008
50831	20057052 7708 166429 172747 1735 1800 261 0 16.5 1824.7148413658 24967.768466232
50830	20064760 9614 166398 172747 1734.75 1800 262 486.85000610352 644.63410949707 130821.03903198 65618300.225695
50829	20074374 9681 166398 172747 1734.75 1800 262 486.63604736328 785.82187652588 143139.41146088 80249300.081337
50861	20084055 7860 167391 172747 1742.25 1800 232 0.973 11.990504229548 576.89286759369 2940.9761613512
50860	20091915 8409 167391 172747 1742.25 1800 232 -3.9039406776428 2.5 40.03994178772 368.40743579359
50859	20100324 8180 167352 172747 1742 1800 233 0 16.125 1782.7904469827 24060.719586807
50858	20108504 8657 167313 172747 1741.75 1800 234 486.85000610352 486.85000610352 113922.90142822 55463365.25566
50857	20117161 8623 167313 172747 1741.75 1800 234 345.04638671875 785.82187652588 127178.71213531 71580417.52986
50875	20125784 7461 167858 172747 1745.25 1800 220 0.973 12.099024792222 561.01085945787 3072.4842368883
50874	20133245 7814 167858 172747 1745.25 1800 220 -4.3286056518555 2.5 40.394918441772 406.15263675578
50873	20141059 7827 167819 172747 1745 1800 221 0 16.27499961853 1635.3469126169 20466.844355775
50872	20148886 8209 167780 172747 1744.75 1800 222 486.85000610352 583.1477355957 109421.73922729 54007499.684003
50871	20157095 8196 167780 172747 1744.75 1800 222 486.85000610352 798.59687805176 126001.2647171 73433380.749795
50882	20165291 5617 169182 172747 1754.75 1800 182 0.973 11.200708441096 350.00150918145 1412.8710084951
50881	20170908 5110 169182 172747 1754.75 1800 182 -7.3439340591431 2.5 -22.60000038147 311.61441315809
50880	20176018 5440 169149 172747 1754.5 1800 183 0 15.02499961853 1146.43385005 15844.30937714
50879	20181458 6797 169116 172747 1754.25 1800 184 498.39999389648 785.82187652588 104688.30574799 61292670.007742
50878	20188255 6808 169116 172747 1754.25 1800 184 483.14999389648 483.14999389648 88899.598876953 42951840.6548
50889	20195063 5479 169645 172747 1758.5 1800 167 0.973 11.648172402475 466.94646244741 2677.5339566493
50888	20200542 5874 169645 172747 1758.5 1800 167 -3.8421847820282 2.5 38.548658370972 313.71841557095
50887	20206416 6000 169612 172747 1758.25 1800 168 0 15.64999961853 1530.5985035896 18824.282399899
50886	20212416 6251 169579 172747 1758 1800 169 486.85000610352 486.85000610352 82277.651031494 40056874.906866
50885	20218667 6232 169579 172747 1758 1800 169 408.49786376953 785.82187652588 97669.102119446 58139391.730456
50896	20224899 5588 169645 172747 1758.5 1800 167 0.973 11.200708441096 345.79172208342 1447.1684811686
50895	20230487 5817 169645 172747 1758.5 1800 167 -4.5 2.5 -22.60000038147 297.6235203438
50894	20236304 5830 169612 172747 1758.25 1800 168 0 15.600852012634 1154.2473322693 16204.534312764
50893	20242134 6228 169579 172747 1758 1800 169 504.79919433594 793.78281402588 98209.674530029 58729837.330589
50892	20248362 6251 169579 172747 1758 1800 169 483.14999389648 483.14999389648 81652.348968506 39450331.905767
50903	20254613 3267 171340 172747 1777.5 1800 91 0.973 11.648172402475 293.80465955373 1573.557522678
50902	20257880 2891 171340 172747 1777.5 1800 91 -3.0983200073242 2.5 24.39999961853 154.32823185152
50901	20260771 3241 171322 172747 1777.25 1800 92 5.6500000953674 15.64999961853 1281.2776899338 18451.152607224
50900	20264012 3439 171303 172747 1777 1800 93 486.85000610352 486.85000610352 45277.050567627 22043132.345198
50899	20267451 3435 171303 172747 1777 1800 93 469.27230834961 785.82187652588 58805.668830872 38113398.358801
50910	20270886 2826 171497 172747 1779.75 1800 82 0.973 12.553400930962 275.24916714377 1727.6493655792
50909	20273712 2921 171497 172747 1779.75 1800 82 -3.4545764923096 2.5 -10.026988983154 269.90601764298
50908	20276633 3056 171478 172747 1779.5 1800 83 3.1432528495789 16.89999961853 1143.8774051666 16988.53816631
50907	20279689 3078 171459 172747 1779.25 1800 84 184.17810058594 469.37969970703 27318.633209229 9613552.8719388
50906	20282767 3108 171459 172747 1779.25 1800 84 486.85000610352 486.85000610352 40895.400512695 19909925.989211
50917	20285875 1724 172097 172747 1788.5 1800 47 0.973 11.648172402475 196.46824808543 1316.6382777007
50916	20287599 1672 172097 172747 1788.5 1800 47 -0.37222290039062 2.5 38.511312484741 100.31667382873
50915	20289271 1760 172078 172747 1788.25 1800 48 5.6500000953674 15.64999961853 655.77764606476 9357.5773160838
50914	20291031 1805 172059 172747 1788 1800 49 627.0054473877 785.82187652588 35071.531333923 25224712.215074
50913	20292836 1811 172059 172747 1788 1800 49 483.14999389648 483.14999389648 23674.349700928 11438261.913506
50924	20294647 329 172645 172747 1798 1800 9 5.2162187258585 8.5795037135332 62.00095089838 437.72442123158
50923	20294976 235 172645 172747 1798 1800 9 2.4999980926514 2.5 22.499998092651 56.24999046326
50922	20295211 366 172632 172747 1797.75 1800 10 5.6500000953674 11.27499961853 84.624998092651 748.36558556557
50921	20295577 394 172619 172747 1797.5 1800 11 184.17810058594 201.8125 2104.7561645508 403103.53486123
50920	20295971 406 172619 172747 1797.5 1800 11 486.85000610352 486.85000610352 5355.3500671387 2607252.2128729
47024	20296377 637 0 172746 0 1800 31 0 25 498 8744
47025	20297014 649 0 172746 0 1800 31 0 187 2779 342947
