file 21977486 1591419356                                        
version 2
run nodebug-41-20200606-00:52:23-5072
attr configname nodebug
attr datetime 20200606-00:52:23
attr experiment nodebug
attr inifile omnetpp.ini
attr iterationvars ""
attr iterationvars2 $repetition=41
attr measurement ""
attr network "\"org.car2x.veins.modules.application.ExtTraCIScenarioManagerLaunchd.IntersectionExampleScenario\""
attr processid 5072
attr repetition 41
attr replication #41
attr resultdir results
attr runnumber 41
attr seedset 41
param **.coreDebug false
param **.debug false
param *.**.nic.mac1609_4.bitrate 18Mbps
param *.**.nic.mac1609_4.txPower 20mW
param *.**.nic.mac1609_4.useServiceChannel false
param *.**.nic.phy80211p.analogueModels "xmldoc(\"config.xml\")"
param *.**.nic.phy80211p.decider "xmldoc(\"config.xml\")"
param *.**.nic.phy80211p.sensitivity -89dBm
param *.**.nic.phy80211p.thermalNoise -110dBm
param *.**.nic.phy80211p.usePropagationDelay true
param *.**.nic.phy80211p.useThermalNoise true
param *.annotations.draw false
param *.connectionManager.alpha 2.0
param *.connectionManager.carrierFrequency "5.890e9 Hz"
param *.connectionManager.pMax 20mW
param *.connectionManager.sat -89dBm
param *.connectionManager.sendDirect true
param *.manager.autoShutdown true
param *.manager.host "\"localhost\""
param *.manager.launchConfig "xmldoc(\"paramics.launchd.xml\")"
param *.manager.margin 25
param *.manager.moduleDisplayString "\"\""
param *.manager.moduleName "\"node\""
param *.manager.moduleType "\"org.car2x.veins.nodes.Car\""
param *.manager.port 9999
param *.manager.updateInterval 250ms
param *.node[*0].veinsmobility.accidentCount 0
param *.node[*0].veinsmobility.accidentDuration 30s
param *.node[*0].veinsmobility.accidentStart 75s
param *.node[*].appl.LiderSelectZoneRadio 55.0
param *.node[*].appl.ShareDataZoneRadio 110.0
param *.node[*].appl.TiempoSemaforo 30.0
param *.node[*].appl.beaconInterval 1s
param *.node[*].appl.beaconPriority 3
param *.node[*].appl.dataOnSch false
param *.node[*].appl.dataPriority 2
param *.node[*].appl.debug false
param *.node[*].appl.headerLength "256 bit"
param *.node[*].appl.maxOffset 0.005s
param *.node[*].appl.sendBeacons false
param *.node[*].appl.sendData true
param *.node[*].applType "\"Dummy\""
param *.node[*].mobilityType "\"TraCIMobility\""
param *.node[*].mobilityType.debug true
param *.node[*].veinsmobility.x 0
param *.node[*].veinsmobility.y 0
param *.node[*].veinsmobility.z 1.895
param *.node[*].veinsmobilityType "\"org.car2x.veins.modules.mobility.traci.TraCIMobility\""
param *.node[*].veinsmobilityType.debug true
param *.playgroundSizeX 8500m
param *.playgroundSizeY 8500m
param *.playgroundSizeZ 50m
param *.world.use2D false
param *.world.useTorus false

vector 63383  IntersectionExampleScenario.manager  vehiclesinsim  ETV
attr type  int
vector 63384  IntersectionExampleScenario.manager  realtime  ETV
attr type  int
attr unit  s
vector 63387  IntersectionExampleScenario.node[0].veinsmobility  posx  ETV
vector 63388  IntersectionExampleScenario.node[0].veinsmobility  posy  ETV
vector 63389  IntersectionExampleScenario.node[0].veinsmobility  speed  ETV
vector 63390  IntersectionExampleScenario.node[0].veinsmobility  acceleration  ETV
vector 63391  IntersectionExampleScenario.node[0].veinsmobility  co2emission  ETV
vector 63394  IntersectionExampleScenario.node[1].veinsmobility  posx  ETV
vector 63395  IntersectionExampleScenario.node[1].veinsmobility  posy  ETV
vector 63396  IntersectionExampleScenario.node[1].veinsmobility  speed  ETV
vector 63397  IntersectionExampleScenario.node[1].veinsmobility  acceleration  ETV
vector 63398  IntersectionExampleScenario.node[1].veinsmobility  co2emission  ETV
vector 63401  IntersectionExampleScenario.node[2].veinsmobility  posx  ETV
vector 63402  IntersectionExampleScenario.node[2].veinsmobility  posy  ETV
vector 63403  IntersectionExampleScenario.node[2].veinsmobility  speed  ETV
vector 63404  IntersectionExampleScenario.node[2].veinsmobility  acceleration  ETV
vector 63405  IntersectionExampleScenario.node[2].veinsmobility  co2emission  ETV
vector 63408  IntersectionExampleScenario.node[3].veinsmobility  posx  ETV
vector 63409  IntersectionExampleScenario.node[3].veinsmobility  posy  ETV
vector 63410  IntersectionExampleScenario.node[3].veinsmobility  speed  ETV
vector 63411  IntersectionExampleScenario.node[3].veinsmobility  acceleration  ETV
vector 63412  IntersectionExampleScenario.node[3].veinsmobility  co2emission  ETV
vector 63415  IntersectionExampleScenario.node[4].veinsmobility  posx  ETV
vector 63416  IntersectionExampleScenario.node[4].veinsmobility  posy  ETV
vector 63417  IntersectionExampleScenario.node[4].veinsmobility  speed  ETV
vector 63418  IntersectionExampleScenario.node[4].veinsmobility  acceleration  ETV
vector 63419  IntersectionExampleScenario.node[4].veinsmobility  co2emission  ETV
vector 63422  IntersectionExampleScenario.node[5].veinsmobility  posx  ETV
vector 63423  IntersectionExampleScenario.node[5].veinsmobility  posy  ETV
vector 63424  IntersectionExampleScenario.node[5].veinsmobility  speed  ETV
vector 63425  IntersectionExampleScenario.node[5].veinsmobility  acceleration  ETV
vector 63426  IntersectionExampleScenario.node[5].veinsmobility  co2emission  ETV
vector 63429  IntersectionExampleScenario.node[6].veinsmobility  posx  ETV
vector 63430  IntersectionExampleScenario.node[6].veinsmobility  posy  ETV
vector 63431  IntersectionExampleScenario.node[6].veinsmobility  speed  ETV
vector 63432  IntersectionExampleScenario.node[6].veinsmobility  acceleration  ETV
vector 63433  IntersectionExampleScenario.node[6].veinsmobility  co2emission  ETV
vector 63436  IntersectionExampleScenario.node[7].veinsmobility  posx  ETV
vector 63437  IntersectionExampleScenario.node[7].veinsmobility  posy  ETV
vector 63438  IntersectionExampleScenario.node[7].veinsmobility  speed  ETV
vector 63439  IntersectionExampleScenario.node[7].veinsmobility  acceleration  ETV
vector 63440  IntersectionExampleScenario.node[7].veinsmobility  co2emission  ETV
vector 63443  IntersectionExampleScenario.node[8].veinsmobility  posx  ETV
vector 63444  IntersectionExampleScenario.node[8].veinsmobility  posy  ETV
vector 63445  IntersectionExampleScenario.node[8].veinsmobility  speed  ETV
vector 63446  IntersectionExampleScenario.node[8].veinsmobility  acceleration  ETV
vector 63447  IntersectionExampleScenario.node[8].veinsmobility  co2emission  ETV
vector 63450  IntersectionExampleScenario.node[9].veinsmobility  posx  ETV
vector 63451  IntersectionExampleScenario.node[9].veinsmobility  posy  ETV
vector 63452  IntersectionExampleScenario.node[9].veinsmobility  speed  ETV
vector 63453  IntersectionExampleScenario.node[9].veinsmobility  acceleration  ETV
vector 63454  IntersectionExampleScenario.node[9].veinsmobility  co2emission  ETV
vector 63457  IntersectionExampleScenario.node[10].veinsmobility  posx  ETV
vector 63458  IntersectionExampleScenario.node[10].veinsmobility  posy  ETV
vector 63459  IntersectionExampleScenario.node[10].veinsmobility  speed  ETV
vector 63460  IntersectionExampleScenario.node[10].veinsmobility  acceleration  ETV
vector 63461  IntersectionExampleScenario.node[10].veinsmobility  co2emission  ETV
vector 63464  IntersectionExampleScenario.node[11].veinsmobility  posx  ETV
vector 63465  IntersectionExampleScenario.node[11].veinsmobility  posy  ETV
vector 63466  IntersectionExampleScenario.node[11].veinsmobility  speed  ETV
vector 63467  IntersectionExampleScenario.node[11].veinsmobility  acceleration  ETV
vector 63468  IntersectionExampleScenario.node[11].veinsmobility  co2emission  ETV
vector 63471  IntersectionExampleScenario.node[12].veinsmobility  posx  ETV
vector 63472  IntersectionExampleScenario.node[12].veinsmobility  posy  ETV
vector 63473  IntersectionExampleScenario.node[12].veinsmobility  speed  ETV
vector 63478  IntersectionExampleScenario.node[13].veinsmobility  posx  ETV
vector 63479  IntersectionExampleScenario.node[13].veinsmobility  posy  ETV
vector 63474  IntersectionExampleScenario.node[12].veinsmobility  acceleration  ETV
vector 63475  IntersectionExampleScenario.node[12].veinsmobility  co2emission  ETV
vector 63480  IntersectionExampleScenario.node[13].veinsmobility  speed  ETV
vector 63481  IntersectionExampleScenario.node[13].veinsmobility  acceleration  ETV
vector 63482  IntersectionExampleScenario.node[13].veinsmobility  co2emission  ETV
vector 63485  IntersectionExampleScenario.node[14].veinsmobility  posx  ETV
vector 63486  IntersectionExampleScenario.node[14].veinsmobility  posy  ETV
vector 63487  IntersectionExampleScenario.node[14].veinsmobility  speed  ETV
vector 63488  IntersectionExampleScenario.node[14].veinsmobility  acceleration  ETV
vector 63489  IntersectionExampleScenario.node[14].veinsmobility  co2emission  ETV
vector 63492  IntersectionExampleScenario.node[15].veinsmobility  posx  ETV
vector 63493  IntersectionExampleScenario.node[15].veinsmobility  posy  ETV
vector 63494  IntersectionExampleScenario.node[15].veinsmobility  speed  ETV
vector 63495  IntersectionExampleScenario.node[15].veinsmobility  acceleration  ETV
vector 63496  IntersectionExampleScenario.node[15].veinsmobility  co2emission  ETV
vector 63499  IntersectionExampleScenario.node[16].veinsmobility  posx  ETV
vector 63500  IntersectionExampleScenario.node[16].veinsmobility  posy  ETV
vector 63501  IntersectionExampleScenario.node[16].veinsmobility  speed  ETV
vector 63502  IntersectionExampleScenario.node[16].veinsmobility  acceleration  ETV
vector 63503  IntersectionExampleScenario.node[16].veinsmobility  co2emission  ETV
vector 63506  IntersectionExampleScenario.node[17].veinsmobility  posx  ETV
vector 63507  IntersectionExampleScenario.node[17].veinsmobility  posy  ETV
vector 63508  IntersectionExampleScenario.node[17].veinsmobility  speed  ETV
vector 63509  IntersectionExampleScenario.node[17].veinsmobility  acceleration  ETV
vector 63510  IntersectionExampleScenario.node[17].veinsmobility  co2emission  ETV
vector 63513  IntersectionExampleScenario.node[18].veinsmobility  posx  ETV
vector 63514  IntersectionExampleScenario.node[18].veinsmobility  posy  ETV
vector 63515  IntersectionExampleScenario.node[18].veinsmobility  speed  ETV
vector 63516  IntersectionExampleScenario.node[18].veinsmobility  acceleration  ETV
vector 63517  IntersectionExampleScenario.node[18].veinsmobility  co2emission  ETV
vector 63520  IntersectionExampleScenario.node[19].veinsmobility  posx  ETV
vector 63521  IntersectionExampleScenario.node[19].veinsmobility  posy  ETV
vector 63522  IntersectionExampleScenario.node[19].veinsmobility  speed  ETV
vector 63523  IntersectionExampleScenario.node[19].veinsmobility  acceleration  ETV
vector 63524  IntersectionExampleScenario.node[19].veinsmobility  co2emission  ETV
63398	10904 4874 62 2970 6.25 44.75 155 0.973 11.90022389248 500.15632620018 2778.9868925169
63397	15778 4443 62 2970 6.25 44.75 155 -3.5925712585449 2.5 39.699392318726 250.14566386043
63396	20221 4751 57 2970 6 44.75 156 5.6500000953674 16 2211.3225059509 32374.309573653
63395	24972 5070 52 2970 5.75 44.75 157 483.14999389648 733.79336547852 84130.039016724 46026735.958444
63394	30042 5047 52 2970 5.75 44.75 157 184.17810058594 486.85000610352 62489.158569336 26632065.987455
vector 63527  IntersectionExampleScenario.node[20].veinsmobility  posx  ETV
vector 63528  IntersectionExampleScenario.node[20].veinsmobility  posy  ETV
vector 63534  IntersectionExampleScenario.node[21].veinsmobility  posx  ETV
vector 63535  IntersectionExampleScenario.node[21].veinsmobility  posy  ETV
vector 63529  IntersectionExampleScenario.node[20].veinsmobility  speed  ETV
vector 63536  IntersectionExampleScenario.node[21].veinsmobility  speed  ETV
vector 63530  IntersectionExampleScenario.node[20].veinsmobility  acceleration  ETV
vector 63531  IntersectionExampleScenario.node[20].veinsmobility  co2emission  ETV
vector 63537  IntersectionExampleScenario.node[21].veinsmobility  acceleration  ETV
vector 63538  IntersectionExampleScenario.node[21].veinsmobility  co2emission  ETV
63412	35891 4889 150 3410 9.75 47.75 153 0.97223939240464 11.648172402475 471.80125096764 2469.8143218926
63411	40780 4411 150 3410 9.75 47.75 153 -3.5467910766602 2.5 38.680875778198 197.15975724438
63410	45191 4790 141 3410 9.5 47.75 154 5.6500000953674 15.64999961853 2210.3583621979 32381.155842395
63409	49981 5049 132 3410 9.25 47.75 155 486.85000610352 486.85000610352 75461.750946045 36738553.908664
63408	55030 5031 132 3410 9.25 47.75 155 238.41052246094 785.82187652588 80957.144294739 46372668.315127
vector 63541  IntersectionExampleScenario.node[22].veinsmobility  posx  ETV
vector 63542  IntersectionExampleScenario.node[22].veinsmobility  posy  ETV
vector 63543  IntersectionExampleScenario.node[22].veinsmobility  speed  ETV
vector 63544  IntersectionExampleScenario.node[22].veinsmobility  acceleration  ETV
vector 63545  IntersectionExampleScenario.node[22].veinsmobility  co2emission  ETV
63405	60462 5182 111 3564 8.5 48.75 162 0.973 11.200708441096 472.17925846391 2257.4483068111
63404	65644 4619 111 3564 8.5 48.75 162 -3.7538948059082 2.5 36.813589096069 180.88910712075
63403	70263 5089 104 3564 8.25 48.75 163 5.6500000953674 15.02499961853 2291.2801094055 32764.29811299
63402	75352 5333 97 3564 8 48.75 164 483.14999389648 483.14999389648 79236.598999023 38283162.322756
63401	80685 5309 97 3564 8 48.75 164 167.29217529297 735.0749206543 72437.161407471 36643890.055986
63391	85994 5763 16 3828 2.75 50.5 192 0.973 11.450879080643 557.55920488771 2826.4255441692
63390	91757 5100 16 3828 2.75 50.5 192 -6.998438835144 4 37.492597579956 469.58309252326
63389	96857 5640 13 3828 2.5 50.5 193 0 15.375 2215.8640432358 31072.668143386
63388	102497 6242 10 3828 2.25 50.5 194 235.61877441406 785.82187652588 100238.30597687 56016158.831459
63387	108739 6255 10 3828 2.25 50.5 194 483.14999389648 483.14999389648 93731.098815918 45286179.820821
vector 63548  IntersectionExampleScenario.node[23].veinsmobility  posx  ETV
vector 63549  IntersectionExampleScenario.node[23].veinsmobility  posy  ETV
vector 63555  IntersectionExampleScenario.node[24].veinsmobility  posx  ETV
vector 63556  IntersectionExampleScenario.node[24].veinsmobility  posy  ETV
vector 63550  IntersectionExampleScenario.node[23].veinsmobility  speed  ETV
vector 63557  IntersectionExampleScenario.node[24].veinsmobility  speed  ETV
vector 63551  IntersectionExampleScenario.node[23].veinsmobility  acceleration  ETV
vector 63552  IntersectionExampleScenario.node[23].veinsmobility  co2emission  ETV
vector 63558  IntersectionExampleScenario.node[24].veinsmobility  acceleration  ETV
vector 63559  IntersectionExampleScenario.node[24].veinsmobility  co2emission  ETV
vector 63562  IntersectionExampleScenario.node[25].veinsmobility  posx  ETV
vector 63563  IntersectionExampleScenario.node[25].veinsmobility  posy  ETV
vector 63564  IntersectionExampleScenario.node[25].veinsmobility  speed  ETV
vector 63565  IntersectionExampleScenario.node[25].veinsmobility  acceleration  ETV
vector 63566  IntersectionExampleScenario.node[25].veinsmobility  co2emission  ETV
63433	116197 5962 513 6223 18 66.25 194 0.973 11.00486315618 537.12767892748 2539.0950870774
63432	122159 5452 513 6223 18 66.25 194 -7.0648307800293 4 34.77654838562 437.73046189658
63431	127611 5861 498 6223 17.75 66.25 195 0 14.75 2207.8602063656 29640.44062302
63430	133472 6410 483 6223 17.5 66.25 196 184.17810058594 486.85000610352 80238.233917236 34812606.309609
63429	139882 6429 483 6223 17.5 66.25 196 234.93939208984 486.85000610352 86390.579223633 39180441.574784
vector 63569  IntersectionExampleScenario.node[26].veinsmobility  posx  ETV
vector 63570  IntersectionExampleScenario.node[26].veinsmobility  posy  ETV
vector 63571  IntersectionExampleScenario.node[26].veinsmobility  speed  ETV
vector 63572  IntersectionExampleScenario.node[26].veinsmobility  acceleration  ETV
vector 63573  IntersectionExampleScenario.node[26].veinsmobility  co2emission  ETV
63440	146712 6008 757 6673 22 70 193 0.973 10.756497587458 513.54325683224 2333.6366570551
63439	152720 5960 757 6673 22 70 193 -4.5 2.5 32.569761276245 327.41119732853
63438	158680 6187 740 6673 21.75 70 194 1.2442097663879 14.39999961853 2229.9361982346 28335.891799237
63437	164867 6375 723 6673 21.5 70 195 177.97814941406 487.02026367188 78659.934570312 33775506.734839
63436	171242 6413 723 6673 21.5 70 195 236.34783935547 486.85000610352 85655.416687012 38735072.037132
vector 63576  IntersectionExampleScenario.node[27].veinsmobility  posx  ETV
vector 63577  IntersectionExampleScenario.node[27].veinsmobility  posy  ETV
vector 63578  IntersectionExampleScenario.node[27].veinsmobility  speed  ETV
vector 63583  IntersectionExampleScenario.node[28].veinsmobility  posx  ETV
vector 63584  IntersectionExampleScenario.node[28].veinsmobility  posy  ETV
vector 63579  IntersectionExampleScenario.node[27].veinsmobility  acceleration  ETV
vector 63580  IntersectionExampleScenario.node[27].veinsmobility  co2emission  ETV
vector 63585  IntersectionExampleScenario.node[28].veinsmobility  speed  ETV
vector 63590  IntersectionExampleScenario.node[29].veinsmobility  posx  ETV
vector 63591  IntersectionExampleScenario.node[29].veinsmobility  posy  ETV
vector 63586  IntersectionExampleScenario.node[28].veinsmobility  acceleration  ETV
vector 63587  IntersectionExampleScenario.node[28].veinsmobility  co2emission  ETV
vector 63592  IntersectionExampleScenario.node[29].veinsmobility  speed  ETV
vector 63593  IntersectionExampleScenario.node[29].veinsmobility  acceleration  ETV
vector 63594  IntersectionExampleScenario.node[29].veinsmobility  co2emission  ETV
vector 63597  IntersectionExampleScenario.node[30].veinsmobility  posx  ETV
vector 63598  IntersectionExampleScenario.node[30].veinsmobility  posy  ETV
vector 63599  IntersectionExampleScenario.node[30].veinsmobility  speed  ETV
vector 63600  IntersectionExampleScenario.node[30].veinsmobility  acceleration  ETV
vector 63601  IntersectionExampleScenario.node[30].veinsmobility  co2emission  ETV
63419	179259 7525 244 7516 12.25 78.5 266 0.973 11.90022389248 670.21251579598 3281.6822724288
63418	186784 6325 244 7516 12.25 78.5 266 -7.8062267303467 4 41.396924972534 517.47982775702
63417	193109 7080 233 7516 12 78.5 267 0 16.00407409668 2270.1011624336 33450.4228344
63416	200189 8789 222 7516 11.75 78.5 268 486.85000610352 486.85000610352 130475.80163574 63522144.822722
63415	208978 8769 222 7516 11.75 78.5 268 238.08117675781 801.41563415527 138651.40605927 76116672.693448
63426	217747 7236 457 7607 17 79.5 251 0.973 11.200708441096 600.36840271611 2713.1909073224
63425	224983 6468 457 7607 17 79.5 251 -7.5492105484009 4 35.964826583862 464.95118037559
63424	231451 6870 444 7607 16.75 79.5 252 0 15.02499961853 2180.5861537457 29808.471098454
63423	238321 8311 431 7607 16.5 79.5 253 483.14999389648 733.02844238281 130951.9707489 68933491.696187
63422	246632 8282 431 7607 16.5 79.5 253 184.17810058594 486.85000610352 107273.60818481 47600360.993478
vector 63604  IntersectionExampleScenario.node[31].veinsmobility  posx  ETV
vector 63605  IntersectionExampleScenario.node[31].veinsmobility  posy  ETV
vector 63606  IntersectionExampleScenario.node[31].veinsmobility  speed  ETV
vector 63607  IntersectionExampleScenario.node[31].veinsmobility  acceleration  ETV
vector 63608  IntersectionExampleScenario.node[31].veinsmobility  co2emission  ETV
63454	255315 6639 994 7674 25.25 80.25 221 0.973 11.648172402475 576.73435345867 2913.4619726485
63453	261954 7029 994 7674 25.25 80.25 221 -3.8717901706696 2.5000009536743 38.341367721558 339.01030533188
63452	268983 7173 973 7674 25 80.25 222 0 15.64999961853 2213.4135273769 29654.485511563
63451	276156 7356 952 7674 24.75 80.25 223 483.14999389648 483.14999389648 107742.44863892 52055763.402284
63450	283512 7313 952 7674 24.75 80.25 223 184.17810058594 732.77258300781 100472.09202576 49413761.674981
63447	290825 6826 914 7720 24.25 80.75 227 0.973 12.099024792222 609.31400999171 3224.2266041624
63446	297651 7187 914 7720 24.25 80.75 227 -3.9311535358429 2.5 41.057416915894 358.37072732823
63445	304838 7363 895 7720 24 80.75 228 0 16.27499961853 2217.986263467 30630.016144778
63444	312201 7551 876 7720 23.75 80.75 229 486.85000610352 486.85000610352 111488.65139771 54278250.613445
63443	319752 7522 876 7720 23.75 80.75 229 236.43780517578 785.82187652588 118952.99398041 65833741.40588
vector 63611  IntersectionExampleScenario.node[32].veinsmobility  posx  ETV
vector 63612  IntersectionExampleScenario.node[32].veinsmobility  posy  ETV
vector 63613  IntersectionExampleScenario.node[32].veinsmobility  speed  ETV
vector 63614  IntersectionExampleScenario.node[32].veinsmobility  acceleration  ETV
vector 63615  IntersectionExampleScenario.node[32].veinsmobility  co2emission  ETV
63468	327675 6609 1245 7899 28 82.75 220 0.973 11.648172402475 583.78332982389 2841.7160337383
63467	334284 6904 1245 7899 28 82.75 220 -4.5 2.5 38.511121749878 355.57446297226
63466	341188 7019 1220 7899 27.75 82.75 221 1.0796383619308 15.64999961853 2261.4003273249 29516.521694825
63465	348207 7321 1195 7899 27.5 82.75 222 483.14999389648 732.45741271973 115607.78973389 61274934.454795
63464	355528 7295 1195 7899 27.5 82.75 222 169.95465087891 486.85000610352 89960.943939209 38565932.032355
63461	362823 6948 1103 8014 26.5 84 231 0.973 11.450879080643 585.84013362964 2804.0551182698
63460	369771 7247 1103 8014 26.5 84 231 -4.4870719909668 2.5000019073486 37.32285118103 382.4779078258
63459	377018 7363 1080 8014 26.25 84 232 0 15.375 2269.3662748076 29259.88536582
63458	384381 7682 1057 8014 26 84 233 237.8388671875 486.85000610352 104964.31054688 48383864.60568
63457	392063 7666 1057 8014 26 84 233 483.12213134766 802.70781707764 131356.06895447 76256767.658461
63496	399729 5663 2070 8059 36.75 84.5 192 0.973 11.648172402475 527.61418877556 2821.9380409241
63495	405392 5838 2070 8059 36.75 84.5 192 -2.4751930236816 2.5 38.511121749878 282.49510761482
63494	411230 6163 2045 8059 36.5 84.5 193 1.9522858858109 15.64999961853 2222.8600758314 29146.117406441
63493	417393 6403 2020 8059 36.25 84.5 194 483.14999389648 483.14999389648 93731.098815918 45286179.820821
63492	423796 6367 2020 8059 36.25 84.5 194 184.17810058594 734.61451721191 86459.714187622 42736358.892428
vector 63618  IntersectionExampleScenario.node[33].veinsmobility  posx  ETV
vector 63619  IntersectionExampleScenario.node[33].veinsmobility  posy  ETV
vector 63620  IntersectionExampleScenario.node[33].veinsmobility  speed  ETV
vector 63621  IntersectionExampleScenario.node[33].veinsmobility  acceleration  ETV
vector 63622  IntersectionExampleScenario.node[33].veinsmobility  co2emission  ETV
vector 63625  IntersectionExampleScenario.node[34].veinsmobility  posx  ETV
vector 63626  IntersectionExampleScenario.node[34].veinsmobility  posy  ETV
vector 63627  IntersectionExampleScenario.node[34].veinsmobility  speed  ETV
vector 63628  IntersectionExampleScenario.node[34].veinsmobility  acceleration  ETV
vector 63629  IntersectionExampleScenario.node[34].veinsmobility  co2emission  ETV
63475	430965 6739 1624 8373 32 88 225 0.973 11.200708441096 569.20792011559 2757.7751952603
63474	437704 6812 1624 8373 32 88 225 -4.9937896728516 2.5000019073486 35.285810470581 428.07944867107
63473	444516 7055 1599 8373 31.75 88 226 0 15.02499961853 2188.3338304162 27479.318804295
63472	451571 7477 1574 8373 31.5 88 227 486.85000610352 734.22631835938 119184.23606873 63672504.366961
63471	459048 7470 1574 8373 31.5 88 227 486.85000610352 785.82187652588 127253.74300385 73223866.742249
63482	466518 6860 1674 8423 32.5 88.5 225 0.973 11.990504229548 627.23359907941 3201.896374993
63481	473378 6786 1674 8423 32.5 88.5 225 -4.5 2.5000019073486 39.529638290405 500.94234439888
63480	480164 7015 1650 8423 32.25 88.5 226 0 16.125 2319.6430575205 31368.714895616
63479	487179 7490 1624 8423 32 88.5 227 486.85000610352 486.85000610352 110514.9513855 53804204.756559
63478	494669 7425 1624 8423 32 88.5 227 235.46484375 809.56562805176 121291.22698212 69536953.219433
63503	502094 6043 2424 8498 40.25 89.25 197 0.973 11.200708441096 551.39711365513 2610.1273941147
63502	508137 6513 2424 8498 40.25 89.25 197 -4.5 2.5 35.997175216675 359.72695245309
63501	514650 6488 2397 8498 40 89.25 198 1.8794238567352 15.02499961853 2246.7348866463 28693.089344911
63500	521138 6562 2370 8498 39.75 89.25 199 483.14999389648 732.80271911621 105057.3165741 56531321.949665
63499	527700 6533 2370 8498 39.75 89.25 199 174.53436279297 486.85000610352 80219.024932861 34392445.837844
63538	534233 5528 3077 8523 45.5 89.5 177 0.973 11.200708441096 520.43166858364 2637.5770611429
63537	539761 5325 3077 8523 45.5 89.5 177 -4.5 2.5 36.134572982788 291.13031372325
63536	545086 5667 3040 8523 45.25 89.5 178 5.6303577423096 15.02499961853 2216.9268393517 29307.929518664
63535	550753 5906 3003 8523 45 89.5 179 483.14999389648 483.14999389648 86483.848907471 41784671.071789
63534	556659 5872 3003 8523 45 89.5 179 184.17810058594 733.45677185059 80159.564300537 40165258.866318
vector 63632  IntersectionExampleScenario.node[35].veinsmobility  posx  ETV
vector 63633  IntersectionExampleScenario.node[35].veinsmobility  posy  ETV
vector 63634  IntersectionExampleScenario.node[35].veinsmobility  speed  ETV
vector 63635  IntersectionExampleScenario.node[35].veinsmobility  acceleration  ETV
vector 63636  IntersectionExampleScenario.node[35].veinsmobility  co2emission  ETV
vector 63639  IntersectionExampleScenario.node[36].veinsmobility  posx  ETV
vector 63640  IntersectionExampleScenario.node[36].veinsmobility  posy  ETV
vector 63641  IntersectionExampleScenario.node[36].veinsmobility  speed  ETV
vector 63642  IntersectionExampleScenario.node[36].veinsmobility  acceleration  ETV
vector 63643  IntersectionExampleScenario.node[36].veinsmobility  co2emission  ETV
63545	563333 5299 3525 8770 48.5 91.75 174 0.973 11.990504229548 570.37884880336 3237.3599121072
63544	568632 5305 3525 8770 48.5 91.75 174 -3.2699928283691 2.5000019073486 43.603719711304 326.00165523231
63543	573937 5537 3486 8770 48.25 91.75 175 4.9821825027466 16.613483428955 2211.7326436043 30951.171628675
63542	579474 5808 3447 8770 48 91.75 176 486.85000610352 486.85000610352 85685.601074219 41716035.405967
63541	585282 5784 3447 8770 48 91.75 176 238.68676757812 785.82187652588 93159.426643372 53241111.624225
63510	591066 6225 2563 8881 41.5 92.75 206 0.973 11.200708441096 563.78705607939 2799.2481363816
63509	597291 6314 2563 8881 41.5 92.75 206 -2.3334922790527 2.5 36.474081039429 325.95145578696
63508	603605 6513 2534 8881 41.25 92.75 207 1.0904122591019 15.02499961853 2194.923938036 27933.185151553
63507	610118 6854 2505 8881 41 92.75 208 486.85000610352 735.44358825684 109857.48782349 59087354.992964
63506	616972 6844 2505 8881 41 92.75 208 486.8083190918 785.82187652588 117576.67693329 68285618.64287
63559	623816 4882 4306 8989 53.75 93.75 161 0.973 12.004063262766 521.16496345719 2992.3462786953
63558	628698 5334 4306 8989 53.75 93.75 161 -3.1520729064941 2.5 41.975027084351 248.74584118976
63557	634032 5306 4267 8989 53.5 93.75 162 5.6500000953674 16.143756866455 2202.5366764069 30939.378028338
63556	639338 5372 4228 8989 53.25 93.75 163 483.14999389648 731.46438598633 87133.609634399 47536348.878711
63555	644710 5359 4228 8989 53.25 93.75 163 184.17810058594 486.85000610352 65070.754150391 27756328.851734
63489	650069 7141 1882 9191 34.75 95.75 245 0.973 11.200708441096 595.186609676 2728.3293086314
63488	657210 6426 1882 9191 34.75 95.75 245 -8.6476802825928 4 35.795072555542 478.27576012592
63487	663636 6831 1859 9191 34.5 95.75 246 0 15.02499961853 2203.4841990471 30168.2151068
63486	670467 8143 1835 9191 34.25 95.75 247 238.29931640625 785.82187652588 126795.09125519 69352193.564885
63485	678610 8153 1835 9191 34.25 95.75 247 483.14999389648 483.14999389648 119338.04849243 57658177.400737
63517	686763 6650 2683 9352 42.5 97.5 221 0.973 11.648172402475 576.68776391278 2811.2502270952
63516	693413 7107 2683 9352 42.5 97.5 221 -3.6955580711365 2.5 38.341367721558 326.07295028912
63515	700520 7201 2652 9352 42.25 97.5 222 0 15.64999961853 2212.4157534484 29689.972959603
63514	707721 7345 2621 9352 42 97.5 223 237.37445068359 785.82187652588 115777.34395599 64252518.467719
63513	715066 7358 2621 9352 42 97.5 223 483.14999389648 483.14999389648 107742.44863892 52055763.402284
vector 63646  IntersectionExampleScenario.node[37].veinsmobility  posx  ETV
vector 63647  IntersectionExampleScenario.node[37].veinsmobility  posy  ETV
vector 63653  IntersectionExampleScenario.node[38].veinsmobility  posx  ETV
vector 63654  IntersectionExampleScenario.node[38].veinsmobility  posy  ETV
vector 63660  IntersectionExampleScenario.node[39].veinsmobility  posx  ETV
vector 63661  IntersectionExampleScenario.node[39].veinsmobility  posy  ETV
vector 63648  IntersectionExampleScenario.node[37].veinsmobility  speed  ETV
vector 63655  IntersectionExampleScenario.node[38].veinsmobility  speed  ETV
vector 63667  IntersectionExampleScenario.node[40].veinsmobility  posx  ETV
vector 63668  IntersectionExampleScenario.node[40].veinsmobility  posy  ETV
vector 63649  IntersectionExampleScenario.node[37].veinsmobility  acceleration  ETV
vector 63650  IntersectionExampleScenario.node[37].veinsmobility  co2emission  ETV
vector 63656  IntersectionExampleScenario.node[38].veinsmobility  acceleration  ETV
vector 63657  IntersectionExampleScenario.node[38].veinsmobility  co2emission  ETV
vector 63662  IntersectionExampleScenario.node[39].veinsmobility  speed  ETV
vector 63663  IntersectionExampleScenario.node[39].veinsmobility  acceleration  ETV
vector 63664  IntersectionExampleScenario.node[39].veinsmobility  co2emission  ETV
vector 63669  IntersectionExampleScenario.node[40].veinsmobility  speed  ETV
vector 63670  IntersectionExampleScenario.node[40].veinsmobility  acceleration  ETV
vector 63671  IntersectionExampleScenario.node[40].veinsmobility  co2emission  ETV
63524	724028 6994 2904 9787 44.25 102 232 0.973 10.916047529558 572.70057906289 2582.3375982968
63523	731022 7283 2904 9787 44.25 102 232 -4.3801422119141 2.5000009536743 33.927785873413 376.07965168483
63522	738305 7342 2871 9787 44 102 233 0 14.625 2260.1776679754 27729.584697433
63521	745647 7710 2838 9787 43.75 102 234 486.85000610352 805.05782318115 132573.50160217 77372216.799492
63520	753357 7725 2838 9787 43.75 102 234 236.47998046875 483.14999389648 104244.21676636 47555366.694632
vector 63674  IntersectionExampleScenario.node[41].veinsmobility  posx  ETV
vector 63675  IntersectionExampleScenario.node[41].veinsmobility  posy  ETV
vector 63676  IntersectionExampleScenario.node[41].veinsmobility  speed  ETV
vector 63677  IntersectionExampleScenario.node[41].veinsmobility  acceleration  ETV
vector 63678  IntersectionExampleScenario.node[41].veinsmobility  co2emission  ETV
63573	761483 5142 6557 10564 69 108.75 160 0.973 11.648172402475 503.75141154779 2757.5432291538
63572	766625 5002 6557 10564 69 108.75 160 -3.9217586517334 2.5 37.832105636597 280.73084074746
63571	771627 5043 6528 10564 68.75 108.75 161 5.6500000953674 15.64999961853 2178.0344367027 30768.516317301
63570	776670 5392 6498 10564 68.5 108.75 162 486.85000610352 785.82187652588 92749.003471375 54847201.58664
63569	782062 5400 6498 10564 68.5 108.75 162 238.09320068359 483.14999389648 70098.088165283 31250273.120605
63531	787462 7374 3077 10644 45.5 109.5 257 0.973 12.099024792222 649.85264310478 3309.5483420884
63530	794836 6669 3077 10644 45.5 109.5 257 -6.9979004859924 4 41.227170944214 492.65892816269
63529	801505 6966 3040 10644 45.25 109.5 258 0 16.27499961853 2205.6508940458 32465.666131508
63528	808471 8579 3003 10644 45 109.5 259 184.17810058594 731.40208435059 118352.03686523 58089819.550801
63527	817050 8608 3003 10644 45 109.5 259 486.85000610352 486.85000610352 126094.15158081 61388938.466735
vector 63681  IntersectionExampleScenario.node[42].veinsmobility  posx  ETV
vector 63682  IntersectionExampleScenario.node[42].veinsmobility  posy  ETV
vector 63683  IntersectionExampleScenario.node[42].veinsmobility  speed  ETV
vector 63684  IntersectionExampleScenario.node[42].veinsmobility  acceleration  ETV
vector 63685  IntersectionExampleScenario.node[42].veinsmobility  co2emission  ETV
vector 63688  IntersectionExampleScenario.node[43].veinsmobility  posx  ETV
vector 63689  IntersectionExampleScenario.node[43].veinsmobility  posy  ETV
vector 63695  IntersectionExampleScenario.node[44].veinsmobility  posx  ETV
vector 63696  IntersectionExampleScenario.node[44].veinsmobility  posy  ETV
vector 63690  IntersectionExampleScenario.node[43].veinsmobility  speed  ETV
63552	826445 7012 4306 10845 53.75 111.5 232 0.973 12.099024792222 602.44212535052 3159.2681219285
63551	833457 7359 4306 10845 53.75 111.5 232 -3.794038772583 2.5 40.038900375366 353.86116314427
63550	840816 7453 4267 10845 53.5 111.5 233 0 16.27499961853 2181.8751168121 29326.837212435
63549	848269 7766 4228 10845 53.25 111.5 234 184.17810058594 483.31201171875 97432.038269043 42480225.769394
63548	856035 7784 4228 10845 53.25 111.5 234 486.85000610352 732.24015808105 121851.41896057 64474020.885563
vector 63691  IntersectionExampleScenario.node[43].veinsmobility  acceleration  ETV
vector 63692  IntersectionExampleScenario.node[43].veinsmobility  co2emission  ETV
vector 63697  IntersectionExampleScenario.node[44].veinsmobility  speed  ETV
vector 63698  IntersectionExampleScenario.node[44].veinsmobility  acceleration  ETV
vector 63699  IntersectionExampleScenario.node[44].veinsmobility  co2emission  ETV
vector 63702  IntersectionExampleScenario.node[45].veinsmobility  posx  ETV
vector 63703  IntersectionExampleScenario.node[45].veinsmobility  posy  ETV
vector 63704  IntersectionExampleScenario.node[45].veinsmobility  speed  ETV
vector 63705  IntersectionExampleScenario.node[45].veinsmobility  acceleration  ETV
vector 63706  IntersectionExampleScenario.node[45].veinsmobility  co2emission  ETV
vector 63709  IntersectionExampleScenario.node[46].veinsmobility  posx  ETV
vector 63710  IntersectionExampleScenario.node[46].veinsmobility  posy  ETV
vector 63711  IntersectionExampleScenario.node[46].veinsmobility  speed  ETV
vector 63712  IntersectionExampleScenario.node[46].veinsmobility  acceleration  ETV
vector 63713  IntersectionExampleScenario.node[46].veinsmobility  co2emission  ETV
63601	865037 5058 7447 11459 77.75 116.75 157 0.973 12.099024792222 530.7726404353 3227.7951148534
63600	870095 4863 7447 11459 77.75 116.75 157 -3.3849239349365 2.5000038146973 40.038900375366 310.41882731951
63599	874958 5019 7424 11459 77.5 116.75 158 5.6500000953674 16.27499961853 2190.2806591988 31845.704177463
63598	879977 5346 7400 11459 77.25 116.75 159 184.17810058594 483.14999389648 63224.102386475 26861018.7476
63597	885323 5360 7400 11459 77.25 116.75 159 486.85000610352 734.74540710449 85485.238372803 46880239.249623
vector 63716  IntersectionExampleScenario.node[47].veinsmobility  posx  ETV
vector 63717  IntersectionExampleScenario.node[47].veinsmobility  posy  ETV
vector 63718  IntersectionExampleScenario.node[47].veinsmobility  speed  ETV
vector 63719  IntersectionExampleScenario.node[47].veinsmobility  acceleration  ETV
vector 63720  IntersectionExampleScenario.node[47].veinsmobility  co2emission  ETV
vector 63723  IntersectionExampleScenario.node[48].veinsmobility  posx  ETV
vector 63724  IntersectionExampleScenario.node[48].veinsmobility  posy  ETV
vector 63725  IntersectionExampleScenario.node[48].veinsmobility  speed  ETV
vector 63726  IntersectionExampleScenario.node[48].veinsmobility  acceleration  ETV
vector 63727  IntersectionExampleScenario.node[48].veinsmobility  co2emission  ETV
63608	891485 5210 7674 11820 80.25 119.5 158 0.97223939240464 11.648172402475 486.58058346325 2610.909984779
63607	896695 4913 7674 11820 80.25 119.5 158 -3.1020164489746 2.5 38.680875778198 197.69039835612
63606	901608 5158 7651 11820 80 119.5 159 5.6500000953674 15.71838092804 2285.6282558441 33515.613034908
63605	906766 5367 7628 11820 79.75 119.5 160 168.58435058594 734.92524719238 70666.239257812 35721966.97081
63604	912133 5422 7628 11820 79.75 119.5 160 486.85000610352 486.85000610352 77896.000976562 37923668.550879
vector 63730  IntersectionExampleScenario.node[49].veinsmobility  posx  ETV
vector 63731  IntersectionExampleScenario.node[49].veinsmobility  posy  ETV
vector 63737  IntersectionExampleScenario.node[50].veinsmobility  posx  ETV
vector 63738  IntersectionExampleScenario.node[50].veinsmobility  posy  ETV
vector 63732  IntersectionExampleScenario.node[49].veinsmobility  speed  ETV
vector 63739  IntersectionExampleScenario.node[50].veinsmobility  speed  ETV
vector 63733  IntersectionExampleScenario.node[49].veinsmobility  acceleration  ETV
vector 63734  IntersectionExampleScenario.node[49].veinsmobility  co2emission  ETV
vector 63740  IntersectionExampleScenario.node[50].veinsmobility  acceleration  ETV
vector 63741  IntersectionExampleScenario.node[50].veinsmobility  co2emission  ETV
63566	918357 7468 5598 12633 62 124.75 252 0.973 11.450879080643 609.74485737463 2839.1196266423
63565	925825 6850 5598 12633 62 124.75 252 -9.2727584838867 4 36.643835067749 493.89910828892
63564	932675 7102 5557 12633 61.75 124.75 253 0 15.375 2208.5789432526 30502.947509587
63563	939777 8566 5516 12633 61.5 124.75 254 235.26031494141 486.85000610352 114924.77801514 53164449.852533
63562	948343 8557 5516 12633 61.5 124.75 254 483.14999389648 785.82187652588 138535.80912018 77673587.202523
63587	956900 6205 7171 12707 75 125.25 202 0.973 12.099024792222 580.30217993021 3175.0520570854
63586	963105 6338 7171 12707 75 125.25 202 -3.7638320922852 2.5 41.396924972534 356.93174220573
63585	969443 6558 7146 12707 74.75 125.25 203 0 16.27499961853 2179.8989689797 29726.163985852
63584	976001 6912 7121 12707 74.5 125.25 204 486.85000610352 731.92242431641 107070.95365906 57161809.251519
63583	982913 6903 7121 12707 74.5 125.25 204 486.85000610352 785.82187652588 114329.06673431 65895754.224673
vector 63744  IntersectionExampleScenario.node[51].veinsmobility  posx  ETV
vector 63745  IntersectionExampleScenario.node[51].veinsmobility  posy  ETV
63622	989970 5395 8231 12924 86.5 126.75 162 0.973 11.200708441096 499.50778154422 2548.1772450791
63621	995365 4711 8231 12924 86.5 126.75 162 -3.3004875183105 2.5 37.32285118103 262.36862084392
63620	1000076 5282 8208 12924 86.25 126.75 163 5.6500000953674 15.02499961853 2187.9761161804 30634.686006238
63619	1005358 5588 8185 12924 86 126.75 164 235.66418457031 483.14999389648 70832.964599609 31544648.00848
63618	1010946 5581 8185 12924 86 126.75 164 184.17810058594 483.14999389648 65250.014221191 27723735.81974
vector 63751  IntersectionExampleScenario.node[52].veinsmobility  posx  ETV
vector 63752  IntersectionExampleScenario.node[52].veinsmobility  posy  ETV
vector 63746  IntersectionExampleScenario.node[51].veinsmobility  speed  ETV
vector 63747  IntersectionExampleScenario.node[51].veinsmobility  acceleration  ETV
vector 63748  IntersectionExampleScenario.node[51].veinsmobility  co2emission  ETV
vector 63753  IntersectionExampleScenario.node[52].veinsmobility  speed  ETV
vector 63754  IntersectionExampleScenario.node[52].veinsmobility  acceleration  ETV
vector 63755  IntersectionExampleScenario.node[52].veinsmobility  co2emission  ETV
vector 63758  IntersectionExampleScenario.node[53].veinsmobility  posx  ETV
vector 63759  IntersectionExampleScenario.node[53].veinsmobility  posy  ETV
vector 63760  IntersectionExampleScenario.node[53].veinsmobility  speed  ETV
vector 63761  IntersectionExampleScenario.node[53].veinsmobility  acceleration  ETV
vector 63762  IntersectionExampleScenario.node[53].veinsmobility  co2emission  ETV
vector 63765  IntersectionExampleScenario.node[54].veinsmobility  posx  ETV
vector 63766  IntersectionExampleScenario.node[54].veinsmobility  posy  ETV
vector 63772  IntersectionExampleScenario.node[55].veinsmobility  posx  ETV
vector 63773  IntersectionExampleScenario.node[55].veinsmobility  posy  ETV
vector 63767  IntersectionExampleScenario.node[54].veinsmobility  speed  ETV
vector 63768  IntersectionExampleScenario.node[54].veinsmobility  acceleration  ETV
vector 63769  IntersectionExampleScenario.node[54].veinsmobility  co2emission  ETV
vector 63774  IntersectionExampleScenario.node[55].veinsmobility  speed  ETV
vector 63775  IntersectionExampleScenario.node[55].veinsmobility  acceleration  ETV
vector 63776  IntersectionExampleScenario.node[55].veinsmobility  co2emission  ETV
vector 63779  IntersectionExampleScenario.node[56].veinsmobility  posx  ETV
vector 63780  IntersectionExampleScenario.node[56].veinsmobility  posy  ETV
vector 63781  IntersectionExampleScenario.node[56].veinsmobility  speed  ETV
vector 63782  IntersectionExampleScenario.node[56].veinsmobility  acceleration  ETV
vector 63783  IntersectionExampleScenario.node[56].veinsmobility  co2emission  ETV
63643	1018779 5299 8741 13662 91.5 131.25 160 0.973 11.36141391502 511.53396184396 2782.3945328147
63642	1024078 5003 8741 13662 91.5 131.25 160 -3.182559967041 2.5 38.511121749878 275.48314365952
63641	1029081 5229 8712 13662 91.25 131.25 161 5.6500000953674 15.601808547974 2187.895026207 31090.22517313
63640	1034310 5572 8683 13662 91 131.25 162 235.69598388672 483.14999389648 70024.264312744 31203397.10572
63639	1039882 5550 8683 13662 91 131.25 162 184.17810058594 483.1614074707 64435.195739746 27375574.596589
vector 63786  IntersectionExampleScenario.node[57].veinsmobility  posx  ETV
vector 63787  IntersectionExampleScenario.node[57].veinsmobility  posy  ETV
vector 63788  IntersectionExampleScenario.node[57].veinsmobility  speed  ETV
vector 63789  IntersectionExampleScenario.node[57].veinsmobility  acceleration  ETV
vector 63790  IntersectionExampleScenario.node[57].veinsmobility  co2emission  ETV
vector 63793  IntersectionExampleScenario.node[58].veinsmobility  posx  ETV
vector 63794  IntersectionExampleScenario.node[58].veinsmobility  posy  ETV
vector 63795  IntersectionExampleScenario.node[58].veinsmobility  speed  ETV
vector 63796  IntersectionExampleScenario.node[58].veinsmobility  acceleration  ETV
vector 63797  IntersectionExampleScenario.node[58].veinsmobility  co2emission  ETV
vector 63800  IntersectionExampleScenario.node[59].veinsmobility  posx  ETV
vector 63801  IntersectionExampleScenario.node[59].veinsmobility  posy  ETV
vector 63802  IntersectionExampleScenario.node[59].veinsmobility  speed  ETV
vector 63803  IntersectionExampleScenario.node[59].veinsmobility  acceleration  ETV
vector 63804  IntersectionExampleScenario.node[59].veinsmobility  co2emission  ETV
63580	1046635 7953 7121 15351 74.5 141 267 0.973 11.200708441096 612.41825567682 2725.6986251375
63579	1054588 7503 7121 15351 74.5 141 267 -7.3452558517456 4 35.285810470581 452.02468765834
63578	1062091 7561 7098 15351 74.25 141 268 0 15.02499961853 2200.3976998329 29799.301382884
63577	1069652 9180 7075 15351 74 141 269 483.14999389648 785.82187652588 146168.56597137 81583347.181949
63576	1078832 9175 7075 15351 74 141 269 483.14999389648 733.21536254883 138796.13064575 72797878.234912
vector 63807  IntersectionExampleScenario.node[60].veinsmobility  posx  ETV
vector 63808  IntersectionExampleScenario.node[60].veinsmobility  posy  ETV
63594	1088161 8041 7225 15567 75.5 142.25 268 0.973 11.200708441096 651.11617132179 2912.5383111795
63593	1096202 7588 7225 15567 75.5 142.25 268 -4.5 2.5 39.310998916626 465.76786280008
63592	1103790 7825 7198 15567 75.25 142.25 269 0 15.516114234924 2288.1474021673 31981.32463613
63591	1111615 9218 7171 15567 75 142.25 270 483.03137207031 807.99687957764 148871.69594574 84571168.972607
63590	1120833 9224 7171 15567 75 142.25 270 483.14999389648 731.65351867676 138744.381073 72415059.325091
vector 63809  IntersectionExampleScenario.node[60].veinsmobility  speed  ETV
vector 63810  IntersectionExampleScenario.node[60].veinsmobility  acceleration  ETV
vector 63811  IntersectionExampleScenario.node[60].veinsmobility  co2emission  ETV
63636	1130304 6912 8602 15963 90.25 144.5 218 0.973 11.200708441096 558.93557454485 2658.8078031113
63635	1137216 7191 8602 15963 90.25 144.5 218 -3.9132332801819 2.5000019073486 36.134572982788 313.85045667286
63634	1144407 7397 8575 15963 90 144.5 219 0 15.02499961853 2214.5659892671 28670.476351939
63633	1151804 7557 8548 15963 89.75 144.5 220 237.13507080078 785.82187652588 114611.41153717 63965739.019783
63632	1159361 7602 8548 15963 89.75 144.5 220 483.14999389648 483.14999389648 106292.99865723 51355461.652478
vector 63814  IntersectionExampleScenario.node[61].veinsmobility  posx  ETV
vector 63815  IntersectionExampleScenario.node[61].veinsmobility  posy  ETV
vector 63816  IntersectionExampleScenario.node[61].veinsmobility  speed  ETV
vector 63817  IntersectionExampleScenario.node[61].veinsmobility  acceleration  ETV
vector 63818  IntersectionExampleScenario.node[61].veinsmobility  co2emission  ETV
63671	1167364 5877 9758 16357 101.75 146.75 181 0.973 11.810082123732 567.27331620765 3200.5337120755
63670	1173241 5835 9758 16357 101.75 146.75 181 -3.8571910858154 2.5000019073486 39.699392318726 366.32961725272
63669	1179076 6035 9729 16357 101.5 146.75 182 4.5363612174988 15.875 2190.6769242287 29142.091032058
63668	1185111 6389 9700 16357 101.25 146.75 183 486.82608032227 785.82187652588 104143.9484024 61023201.361162
63667	1191500 6385 9700 16357 101.25 146.75 183 235.43182373047 483.14999389648 80304.693511963 36214171.495756
vector 63821  IntersectionExampleScenario.node[62].veinsmobility  posx  ETV
vector 63822  IntersectionExampleScenario.node[62].veinsmobility  posy  ETV
vector 63823  IntersectionExampleScenario.node[62].veinsmobility  speed  ETV
vector 63824  IntersectionExampleScenario.node[62].veinsmobility  acceleration  ETV
vector 63825  IntersectionExampleScenario.node[62].veinsmobility  co2emission  ETV
vector 63828  IntersectionExampleScenario.node[63].veinsmobility  posx  ETV
vector 63829  IntersectionExampleScenario.node[63].veinsmobility  posy  ETV
vector 63830  IntersectionExampleScenario.node[63].veinsmobility  speed  ETV
vector 63831  IntersectionExampleScenario.node[63].veinsmobility  acceleration  ETV
vector 63832  IntersectionExampleScenario.node[63].veinsmobility  co2emission  ETV
63699	1198687 5340 10903 17232 112 151.5 159 0.973 11.494936254471 488.15829526007 2655.2308731881
63698	1204027 5252 10903 17232 112 151.5 159 -3.5848197937012 2.5 37.32285118103 240.16712508689
63697	1209279 5311 10874 17232 111.75 151.5 160 5.6500000953674 15.43648815155 2206.3389358521 31273.178257595
63696	1214590 5629 10845 17232 111.5 151.5 161 483.14999389648 785.82187652588 92088.195121765 54463325.112263
63695	1220219 5625 10845 17232 111.5 151.5 161 483.14999389648 732.83378601074 86306.406082153 47232898.193886
63615	1225844 8784 7899 18010 82.75 156 294 0.973 11.200708441096 650.31894132065 2776.4274933087
63614	1234628 7887 7899 18010 82.75 156 294 -18.452049255371 4 35.795072555542 739.20535021418
63613	1242515 8191 7876 18010 82.5 156 295 0 15.02499961853 2278.9447870255 31269.192403287
63612	1250706 10193 7853 18010 82.25 156 296 160.78747558594 483.36395263672 125265.13256836 55663815.192639
63611	1260899 10142 7853 18010 82.25 156 296 486.85000610352 735.56745910645 152797.07977295 80057628.086559
63629	1271041 8894 8373 18278 88 157.75 280 0.973 11.200708441096 654.63143886322 2829.0172185199
63628	1279935 9121 8373 18278 88 157.75 280 -4.5 2.5 38.680875778198 408.93366985334
63627	1289056 8933 8348 18278 87.75 157.75 281 0 15.379264831543 2222.9107950497 30758.270691624
63626	1297989 9742 8323 18278 87.5 157.75 282 175.54870605469 483.14999389648 119458.85980225 52816077.399161
63625	1307731 9744 8323 18278 87.5 157.75 282 486.85000610352 734.33396911621 145531.61445618 76216482.98185
63650	1317475 7486 9700 18489 101.25 159.25 233 0.973 11.648172402475 594.03272589712 2946.9390868946
63649	1324961 7744 9700 18489 101.25 159.25 233 -3.8833703994751 2.5 38.511121749878 335.92355548346
63648	1332705 8000 9673 18489 101 159.25 234 0 15.64999961853 2217.9043226168 29539.834320478
63647	1340705 8170 9648 18489 100.75 159.25 235 184.17810058594 733.46943664551 105545.95246887 51558949.454344
63646	1348875 8212 9648 18489 100.75 159.25 235 486.85000610352 486.85000610352 114409.75143433 55700388.184103
63678	1357087 7389 10074 18822 104.5 162 231 0.973 11.810082123732 616.2013353497 3155.411951892
63677	1364476 7703 10074 18822 104.5 162 231 -4.5 2.5000019073486 39.869146347046 433.27622331959
63676	1372179 7795 10045 18822 104.25 162 232 0 15.875 2234.499311775 29429.977218663
63675	1379974 8110 10016 18822 104 162 233 172.9296875 483.14999389648 94816.420532227 40602006.692012
63674	1388084 8148 10016 18822 104 162 233 486.85000610352 734.29180908203 121503.19946289 64407451.280827
vector 63835  IntersectionExampleScenario.node[64].veinsmobility  posx  ETV
vector 63836  IntersectionExampleScenario.node[64].veinsmobility  posy  ETV
vector 63837  IntersectionExampleScenario.node[64].veinsmobility  speed  ETV
vector 63838  IntersectionExampleScenario.node[64].veinsmobility  acceleration  ETV
vector 63839  IntersectionExampleScenario.node[64].veinsmobility  co2emission  ETV
vector 63842  IntersectionExampleScenario.node[65].veinsmobility  posx  ETV
vector 63843  IntersectionExampleScenario.node[65].veinsmobility  posy  ETV
vector 63844  IntersectionExampleScenario.node[65].veinsmobility  speed  ETV
vector 63845  IntersectionExampleScenario.node[65].veinsmobility  acceleration  ETV
vector 63846  IntersectionExampleScenario.node[65].veinsmobility  co2emission  ETV
vector 63849  IntersectionExampleScenario.node[66].veinsmobility  posx  ETV
vector 63850  IntersectionExampleScenario.node[66].veinsmobility  posy  ETV
vector 63851  IntersectionExampleScenario.node[66].veinsmobility  speed  ETV
vector 63852  IntersectionExampleScenario.node[66].veinsmobility  acceleration  ETV
vector 63853  IntersectionExampleScenario.node[66].veinsmobility  co2emission  ETV
63657	1397435 8346 9700 19629 101.25 169.5 274 0.973 11.36141391502 633.28557141509 2869.3079774843
63656	1405781 7738 9700 19629 101.25 169.5 274 -9.0464344024658 4 37.15309715271 537.41671485669
63655	1413519 7792 9673 19629 101 169.5 275 0 15.25 2177.0432405472 30305.194658198
63654	1421311 9582 9648 19629 100.75 169.5 276 236.84155273438 483.14999389648 125012.05999756 57737125.563001
63653	1430893 9624 9648 19629 100.75 169.5 276 184.17810058594 483.36395263672 118045.0786438 52612825.871726
63685	1440517 7625 10743 19683 110.5 170 239 0.973 12.099024792222 615.5688046465 3214.8114136851
63684	1448142 8065 10743 19683 110.5 170 239 -3.905327796936 2.5000009536743 40.038900375366 361.05859033784
63683	1456207 8229 10718 19683 110.25 170 240 0 16.27499961853 2220.9671378098 30336.313215967
63682	1464436 8433 10693 19683 110 170 241 483.14999389648 483.14999389648 116439.14852905 56257573.901123
63681	1472869 8394 10693 19683 110 170 241 184.17810058594 734.42604064941 108865.44728088 53281660.457366
63664	1481263 8402 9729 19683 101.5 170 275 0.973 11.200708441096 624.84766823647 2756.6305689917
63663	1489665 7519 9729 19683 101.5 170 275 -7.0867538452148 4 35.455564498901 484.57974788375
63662	1497184 7960 9700 19683 101.25 170 276 0 15.02499961853 2214.5069024563 30270.069150791
63661	1505144 9681 9673 19683 101 170 277 486.85000610352 486.85000610352 134857.45169067 65655351.178709
63660	1514825 9669 9673 19683 101 170 277 235.85095214844 785.82187652588 141547.33367157 76667806.127308
vector 63856  IntersectionExampleScenario.node[67].veinsmobility  posx  ETV
vector 63857  IntersectionExampleScenario.node[67].veinsmobility  posy  ETV
vector 63863  IntersectionExampleScenario.node[68].veinsmobility  posx  ETV
vector 63864  IntersectionExampleScenario.node[68].veinsmobility  posy  ETV
vector 63870  IntersectionExampleScenario.node[69].veinsmobility  posx  ETV
vector 63871  IntersectionExampleScenario.node[69].veinsmobility  posy  ETV
63692	1524956 7610 10874 19786 111.75 171 238 0.973 12.099024792222 630.24227205661 3253.9540121545
63691	1532566 8222 10874 19786 111.75 171 238 -3.9281265735626 2.5000004768372 40.960500717163 360.46968669563
63690	1540788 8229 10845 19786 111.5 171 239 0 16.27499961853 2210.7277291436 29916.313714968
63689	1549017 8400 10818 19786 111.25 171 240 486.85000610352 486.85000610352 116844.00146484 56885502.826318
63688	1557417 8359 10818 19786 111.25 171 240 237.91870117188 785.82187652588 124093.72853851 68287337.130343
vector 63858  IntersectionExampleScenario.node[67].veinsmobility  speed  ETV
vector 63865  IntersectionExampleScenario.node[68].veinsmobility  speed  ETV
vector 63872  IntersectionExampleScenario.node[69].veinsmobility  speed  ETV
vector 63859  IntersectionExampleScenario.node[67].veinsmobility  acceleration  ETV
vector 63860  IntersectionExampleScenario.node[67].veinsmobility  co2emission  ETV
vector 63866  IntersectionExampleScenario.node[68].veinsmobility  acceleration  ETV
vector 63867  IntersectionExampleScenario.node[68].veinsmobility  co2emission  ETV
vector 63873  IntersectionExampleScenario.node[69].veinsmobility  acceleration  ETV
vector 63874  IntersectionExampleScenario.node[69].veinsmobility  co2emission  ETV
63706	1566517 7388 11306 20002 115.5 172.75 230 0.973 11.648172402475 595.89230881478 2951.1251468467
63705	1573905 7650 11306 20002 115.5 172.75 230 -3.8877930641174 2.5000002384186 39.190130233765 369.20129610141
63704	1581555 7873 11277 20002 115.25 172.75 231 0 15.64999961853 2212.7498461977 29343.681125979
63703	1589428 8120 11248 20002 115 172.75 232 483.14999389648 483.14999389648 112090.79858398 54156668.651704
63702	1597548 8080 11248 20002 115 172.75 232 184.17810058594 732.5216217041 103759.70541382 50516887.688921
63776	1605628 5796 13403 20205 129.75 174.5 180 0.973 12.099024792222 547.0574731273 3140.341677093
63775	1611424 5750 13403 20205 129.75 174.5 180 -3.1660308837891 2.5 41.227170944214 310.5041251465
63774	1617174 6111 13360 20205 129.5 174.5 181 3.9068143367767 16.27499961853 2208.8015546799 30052.35083482
63773	1623285 6371 13317 20205 129.25 174.5 182 486.85000610352 486.85000610352 88606.70111084 43138172.976625
63772	1629656 6350 13317 20205 129.25 174.5 182 239.01629638672 785.82187652588 95896.293815613 54525570.234922
63734	1636006 6976 11934 20234 120.25 174.75 219 0.973 11.00486315618 543.14076817265 2502.6166544193
63733	1642982 7198 11934 20234 120.25 174.75 219 -3.7661979198456 2.5000000298023 34.267293930054 318.71365762699
63732	1650180 7392 11895 20234 120 174.75 220 0 14.75 2202.3752348796 27393.086554998
63731	1657572 7734 11855 20234 119.75 174.75 221 238.32629394531 486.85000610352 98730.930145264 45223405.915295
63730	1665306 7724 11855 20234 119.75 174.75 221 483.14999389648 785.82187652588 123783.72767639 71279068.703928
vector 63877  IntersectionExampleScenario.node[70].veinsmobility  posx  ETV
vector 63878  IntersectionExampleScenario.node[70].veinsmobility  posy  ETV
vector 63879  IntersectionExampleScenario.node[70].veinsmobility  speed  ETV
vector 63880  IntersectionExampleScenario.node[70].veinsmobility  acceleration  ETV
vector 63881  IntersectionExampleScenario.node[70].veinsmobility  co2emission  ETV
63727	1673431 7154 11820 20407 119.5 176.25 228 0.973 11.648172402475 605.06087642294 3091.672335663
63726	1680585 7829 11820 20407 119.5 176.25 228 -3.9199485778809 2.5000019073486 39.366319656372 394.87153066971
63725	1688414 7707 11785 20407 119.25 176.25 229 0 15.64999961853 2212.316649124 28179.669504821
63724	1696121 8042 11750 20407 119 176.25 230 235.98541259766 483.14999389648 102708.99026489 46946168.237855
63723	1704163 8010 11750 20407 119 176.25 230 177.97814941406 483.14999389648 93615.012573242 40037493.488725
63755	1712173 6172 13039 20493 127.5 177 199 0.973 12.099024792222 571.02506321531 3272.7287016956
63754	1718345 6357 13039 20493 127.5 177 199 -3.9955859184265 2.5 41.227170944214 379.59998223945
63753	1724702 6671 13000 20493 127.25 177 200 0 16.27499961853 2210.3379202783 29121.565057619
63752	1731373 7029 12961 20493 127 177 201 483.14999389648 733.2967376709 105174.34046936 56051082.697574
63751	1738402 7006 12961 20493 127 177 201 184.17810058594 486.87326049805 81139.990081787 34563419.573821
63783	1745408 6249 13576 20520 130.75 177.25 187 0.973 11.648172402475 554.60757447298 2871.0929999101
63782	1751657 6102 13576 20520 130.75 177.25 187 -4.5 2.5 38.341367721558 377.1087650333
63781	1757759 6342 13533 20520 130.5 177.25 188 3.4260926246643 15.64999961853 2302.8374557495 31237.095825262
63780	1764101 6616 13489 20520 130.25 177.25 189 486.85000610352 486.85000610352 92014.651153564 44797333.475726
63779	1770717 6589 13489 20520 130.25 177.25 189 237.46783447266 807.99687957764 100779.64351654 58373014.92353
vector 63884  IntersectionExampleScenario.node[71].veinsmobility  posx  ETV
vector 63885  IntersectionExampleScenario.node[71].veinsmobility  posy  ETV
vector 63886  IntersectionExampleScenario.node[71].veinsmobility  speed  ETV
vector 63887  IntersectionExampleScenario.node[71].veinsmobility  acceleration  ETV
vector 63888  IntersectionExampleScenario.node[71].veinsmobility  co2emission  ETV
63804	1777707 5244 15306 20831 140.75 180 158 0.973 11.648172402475 504.91143549913 2904.129990125
63803	1782951 5021 15306 20831 140.75 180 158 -2.8571510314941 2.5 38.511121749878 218.78097820352
63802	1787972 5331 15261 20831 140.5 180 159 5.6500000953674 15.64999961853 2219.3869190216 31620.752666129
63801	1793303 5600 15216 20831 140.25 180 160 486.85000610352 486.85000610352 77896.000976562 37923668.550879
63800	1798903 5574 15216 20831 140.25 180 160 236.33148193359 785.82187652588 83560.393867493 47789554.320281
vector 63891  IntersectionExampleScenario.node[72].veinsmobility  posx  ETV
vector 63892  IntersectionExampleScenario.node[72].veinsmobility  posy  ETV
vector 63893  IntersectionExampleScenario.node[72].veinsmobility  speed  ETV
vector 63894  IntersectionExampleScenario.node[72].veinsmobility  acceleration  ETV
vector 63895  IntersectionExampleScenario.node[72].veinsmobility  co2emission  ETV
vector 63898  IntersectionExampleScenario.node[73].veinsmobility  posx  ETV
vector 63899  IntersectionExampleScenario.node[73].veinsmobility  posy  ETV
vector 63900  IntersectionExampleScenario.node[73].veinsmobility  speed  ETV
vector 63901  IntersectionExampleScenario.node[73].veinsmobility  acceleration  ETV
vector 63902  IntersectionExampleScenario.node[73].veinsmobility  co2emission  ETV
63811	1805279 5470 15657 21108 142.75 182.5 160 0.973 11.200708441096 453.51941805923 2201.8882946266
63810	1810749 5369 15657 21108 142.75 182.5 160 -3.2607612609863 2.5 35.285810470581 171.92060381524
63809	1816118 5411 15612 21108 142.5 182.5 161 5.6500000953674 15.02499961853 2216.1082544327 30990.308631193
63808	1821529 5671 15567 21108 142.25 182.5 162 483.14999389648 483.14999389648 78270.29901123 37816294.489552
63807	1827200 5645 15567 21108 142.25 182.5 162 184.17810058594 733.29656982422 72862.358825684 37065537.709243
63713	1832845 8420 11397 21420 116.25 185.25 277 0.973 11.36141391502 647.51522625011 2919.0749930849
63712	1841265 7333 11397 21420 116.25 185.25 277 -9.0386238098145 4 38.341367721558 547.08783812815
63711	1848598 7857 11366 21420 116 185.25 278 0 15.418344497681 2194.870221138 31063.591329958
63710	1856455 9761 11335 21420 115.75 185.25 279 486.63604736328 790.18281555176 151398.17166901 84355902.475207
63709	1866216 9700 11335 21420 115.75 185.25 279 236.95220947266 483.14999389648 126617.10061646 58560430.568072
63720	1875916 8817 11618 21546 118 186.5 275 0.973 11.54047740176 645.81412706139 2905.3842413694
63719	1884733 8483 11618 21546 118 186.5 275 -4.5 2.5 36.98334312439 440.98116241527
63718	1893216 8741 11585 21546 117.75 186.5 276 0 15.5 2294.3763372758 31687.299341836
63717	1901957 9611 11552 21546 117.5 186.5 277 238.18646240234 807.23828887939 144418.40039062 80014295.521368
63716	1911568 9695 11552 21546 117.5 186.5 277 483.14999389648 483.14999389648 133832.54830933 64661194.898802
vector 63905  IntersectionExampleScenario.node[74].veinsmobility  posx  ETV
vector 63906  IntersectionExampleScenario.node[74].veinsmobility  posy  ETV
vector 63907  IntersectionExampleScenario.node[74].veinsmobility  speed  ETV
63741	1921495 9028 11934 21723 120.25 188.25 273 0.973 11.200708441096 685.16911690831 3028.244660927
63740	1930523 9156 11934 21723 120.25 188.25 273 -4.5 2.5 41.227170944214 438.56040997139
63739	1939679 9267 11895 21723 120 188.25 274 0 15.966596603394 2310.3530237693 32171.826802571
63738	1948946 9593 11855 21723 119.75 188.25 275 483.14999389648 813.41602325439 152707.12367249 87300729.132735
63737	1958539 9593 11855 21723 119.75 188.25 275 483.14999389648 731.37249755859 140844.75041199 73217507.761645
vector 63908  IntersectionExampleScenario.node[74].veinsmobility  acceleration  ETV
vector 63909  IntersectionExampleScenario.node[74].veinsmobility  co2emission  ETV
63748	1968301 8360 13000 22074 127.25 191.5 258 0.973 11.648172402475 641.82711537492 3118.4081691782
63747	1976661 8571 13000 22074 127.25 191.5 258 -3.7790942192078 2.5000019073486 39.529638290405 399.65474693291
63746	1985232 8681 12961 22074 127 191.5 259 0 15.64999961853 2184.8464583904 29129.851369523
63745	1993913 9082 12924 22074 126.75 191.5 260 486.83126831055 785.82187652588 143868.90203094 81504028.914039
63744	2002995 9086 12924 22074 126.75 191.5 260 236.78466796875 483.14999389648 117569.52310181 54231021.338505
63762	2012081 8538 13159 22209 128.25 192.75 259 0.973 11.648172402475 640.26900672841 3018.6966214163
63761	2020619 8611 13159 22209 128.25 192.75 259 -4.5 2.5 38.850629806519 407.68346196417
63760	2029230 8860 13119 22209 128 192.75 260 0 15.64999961853 2310.4611046463 30937.752649998
63759	2038090 9108 13078 22209 127.75 192.75 261 235.97613525391 807.99687957764 138813.83214569 78481672.063179
63758	2047198 9136 13078 22209 127.75 192.75 261 483.14999389648 483.14999389648 126102.14840698 60926252.233167
63790	2056334 7697 14476 22466 136 195.25 238 0.973 11.90022389248 620.48976264504 3258.9039955927
63789	2064031 7930 14476 22466 136 195.25 238 -4.0029563903809 2.5 39.869146347046 398.36823561516
63788	2071961 8049 14433 22466 135.75 195.25 239 0 16 2214.8001227342 29391.988561895
63787	2080010 8390 14390 22466 135.5 195.25 240 483.14999389648 785.82187652588 134432.98429108 77145714.70554
63786	2088400 8394 14390 22466 135.5 195.25 240 483.14999389648 734.09892272949 124230.06797791 65401757.326247
63797	2096794 7510 14824 22566 138 196.25 234 0.973 11.648172402475 632.14788725413 3234.2039631852
63796	2104304 7719 14824 22566 138 196.25 234 -4.5 2.5 40.038900375366 431.20982984263
63795	2112023 7818 14779 22566 137.75 196.25 235 0 15.721688270569 2284.0923864245 30762.604601663
63794	2119841 8232 14734 22566 137.5 196.25 236 238.53033447266 803.92188262939 126569.24468994 72337301.725462
63793	2128073 8260 14734 22566 137.5 196.25 236 483.14999389648 483.14999389648 114023.39855957 55090404.318113
vector 63912  IntersectionExampleScenario.node[75].veinsmobility  posx  ETV
vector 63913  IntersectionExampleScenario.node[75].veinsmobility  posy  ETV
vector 63914  IntersectionExampleScenario.node[75].veinsmobility  speed  ETV
vector 63915  IntersectionExampleScenario.node[75].veinsmobility  acceleration  ETV
vector 63916  IntersectionExampleScenario.node[75].veinsmobility  co2emission  ETV
63769	2136734 8717 13360 22980 129.5 200.75 286 0.973 11.200708441096 643.88835177711 2796.1968557703
63768	2145451 7585 13360 22980 129.5 200.75 286 -37.971561431885 4 36.134572982788 1778.0001098584
63767	2153036 8102 13317 22980 129.25 200.75 287 0 15.02499961853 2212.5506305695 30922.467547372
63766	2161138 10048 13276 22980 129 200.75 288 184.17810058594 732.88059997559 132254.71464539 65013253.772025
63765	2171186 10080 13276 22980 129 200.75 288 486.85000610352 486.85000610352 140212.80175781 68262603.391582
63832	2181266 6713 16809 23056 149.25 201.75 211 0.973 11.810082123732 568.71555494728 2989.4832292232
63831	2187979 7045 16809 23056 149.25 201.75 211 -3.9498527050018 2.5000009536743 38.511121749878 343.65054390069
63830	2195024 7097 16762 23056 149 201.75 212 0 15.875 2179.5519382209 28763.059624326
63829	2202121 7427 16715 23056 148.75 201.75 213 184.17810058594 483.29977416992 87501.591949463 37818131.975579
63828	2209548 7442 16715 23056 148.75 201.75 213 486.85000610352 731.69934082031 111769.58216858 59656875.643769
vector 63919  IntersectionExampleScenario.node[76].veinsmobility  posx  ETV
vector 63920  IntersectionExampleScenario.node[76].veinsmobility  posy  ETV
vector 63921  IntersectionExampleScenario.node[76].veinsmobility  speed  ETV
vector 63922  IntersectionExampleScenario.node[76].veinsmobility  acceleration  ETV
vector 63923  IntersectionExampleScenario.node[76].veinsmobility  co2emission  ETV
vector 63926  IntersectionExampleScenario.node[77].veinsmobility  posx  ETV
vector 63927  IntersectionExampleScenario.node[77].veinsmobility  posy  ETV
vector 63933  IntersectionExampleScenario.node[78].veinsmobility  posx  ETV
vector 63934  IntersectionExampleScenario.node[78].veinsmobility  posy  ETV
vector 63928  IntersectionExampleScenario.node[77].veinsmobility  speed  ETV
vector 63929  IntersectionExampleScenario.node[77].veinsmobility  acceleration  ETV
vector 63930  IntersectionExampleScenario.node[77].veinsmobility  co2emission  ETV
vector 63935  IntersectionExampleScenario.node[78].veinsmobility  speed  ETV
vector 63936  IntersectionExampleScenario.node[78].veinsmobility  acceleration  ETV
vector 63937  IntersectionExampleScenario.node[78].veinsmobility  co2emission  ETV
63867	2218193 5153 19848 23548 171.5 209.25 152 0.973 12.26218747632 536.55256160139 3220.2259921607
63866	2223346 4817 19848 23548 171.5 209.25 152 -3.5941028594971 2.5 42.924703598022 317.81546345245
63865	2228163 5012 19817 23548 171.25 209.25 153 5.6500000953674 16.621295928955 2182.2901444435 32895.653371248
63864	2233175 5364 19786 23548 171 209.25 154 184.17810058594 483.14999389648 61151.150299072 25970791.175932
63863	2238539 5367 19786 23548 171 209.25 154 486.85000610352 732.59089660645 82600.71421814 45167855.929512
vector 63940  IntersectionExampleScenario.node[79].veinsmobility  posx  ETV
vector 63941  IntersectionExampleScenario.node[79].veinsmobility  posy  ETV
vector 63942  IntersectionExampleScenario.node[79].veinsmobility  speed  ETV
vector 63943  IntersectionExampleScenario.node[79].veinsmobility  acceleration  ETV
vector 63944  IntersectionExampleScenario.node[79].veinsmobility  co2emission  ETV
vector 63947  IntersectionExampleScenario.node[80].veinsmobility  posx  ETV
vector 63948  IntersectionExampleScenario.node[80].veinsmobility  posy  ETV
vector 63949  IntersectionExampleScenario.node[80].veinsmobility  speed  ETV
vector 63950  IntersectionExampleScenario.node[80].veinsmobility  acceleration  ETV
vector 63951  IntersectionExampleScenario.node[80].veinsmobility  co2emission  ETV
vector 63954  IntersectionExampleScenario.node[81].veinsmobility  posx  ETV
vector 63955  IntersectionExampleScenario.node[81].veinsmobility  posy  ETV
vector 63956  IntersectionExampleScenario.node[81].veinsmobility  speed  ETV
vector 63957  IntersectionExampleScenario.node[81].veinsmobility  acceleration  ETV
vector 63958  IntersectionExampleScenario.node[81].veinsmobility  co2emission  ETV
63818	2245109 8427 16096 23929 145.25 214 276 0.973 11.90022389248 668.27461957073 3143.3018157531
63817	2253536 7465 16096 23929 145.25 214 276 -38.160800933838 4 39.359884262085 1823.0243384077
63816	2261001 7831 16051 23929 145 214 277 0 16 2273.8820180893 33229.785049096
63815	2268832 9729 16006 23929 144.75 214 278 483.14999389648 483.14999389648 134315.69830322 64894628.815404
63814	2278561 9697 16006 23929 144.75 214 278 168.58435058594 733.46641540527 126178.77142334 61786790.380277
63825	2288258 8191 16490 23974 147.5 214.5 269 0.973 11.450879080643 627.91124999596 2883.0191465611
63824	2296449 7737 16490 23974 147.5 214.5 269 -8.8789520263672 4 36.98334312439 486.34044191697
63823	2304186 7786 16445 23974 147.25 214.5 270 0 15.375 2207.917219162 30740.695701946
63822	2311972 9484 16400 23974 147 214.5 271 486.85000610352 486.85000610352 131936.35165405 64233213.608051
63821	2321456 9476 16400 23974 147 214.5 271 237.32635498047 785.82187652588 138726.89572906 75246126.477978
63839	2330932 6658 19042 24076 164 215.75 208 0.973 11.648172402475 580.71933852211 3014.3615691908
63838	2337590 7103 19042 24076 164 215.75 208 -3.8021025657654 2.5 40.208654403687 335.5301962199
63837	2344693 7165 19013 24076 163.75 215.75 209 0 15.987417221069 2217.9041717462 30253.029826842
63836	2351858 7351 18984 24076 163.5 215.75 210 483.14999389648 483.14999389648 101461.49871826 49021122.486456
63835	2359209 7307 18984 24076 163.5 215.75 210 184.17810058594 733.54020690918 94382.034484863 46500285.439017
63860	2366516 5924 19848 24152 171.5 216.75 182 0.973 11.648172402475 544.34493050583 2937.8758290762
63859	2372440 5909 19848 24152 171.5 216.75 182 -2.9330863952637 2.5 38.001859664917 321.04429088637
63858	2378349 6075 19817 24152 171.25 216.75 183 3.460542678833 15.64999961853 2186.2125372887 28977.862394607
63857	2384424 6430 19786 24152 171 216.75 184 486.85000610352 733.21876525879 97822.694564819 52986344.202748
63856	2390854 6432 19786 24152 171 216.75 184 486.75729370117 785.82187652588 104408.2154007 61032474.192797
vector 63961  IntersectionExampleScenario.node[82].veinsmobility  posx  ETV
vector 63962  IntersectionExampleScenario.node[82].veinsmobility  posy  ETV
vector 63963  IntersectionExampleScenario.node[82].veinsmobility  speed  ETV
vector 63964  IntersectionExampleScenario.node[82].veinsmobility  acceleration  ETV
vector 63965  IntersectionExampleScenario.node[82].veinsmobility  co2emission  ETV
63846	2397687 6740 19387 24318 167.25 219 208 0.973 11.36141391502 566.28935405766 2819.6197799161
63845	2404427 6893 19387 24318 167.25 219 208 -4.4630088806152 2.5 37.32285118103 365.35438298096
63844	2411320 6990 19360 24318 167 219 209 2.0620379447937 15.25 2233.8482365608 28671.721448471
63843	2418310 7346 19333 24318 166.75 219 210 235.49877929688 483.14999389648 93051.66104126 42279077.399939
63842	2425656 7318 19333 24318 166.75 219 210 172.9296875 483.14999389648 84521.112243652 36035000.984457
63874	2432974 6360 19848 24394 171.5 220 195 0.973 11.450879080643 566.68806141846 2880.8280232926
63873	2439334 6270 19848 24394 171.5 220 195 -4.5 2.5 39.869146347046 368.36185811929
63872	2445604 6570 19817 24394 171.25 220 196 0.9094409942627 15.670742034912 2248.8209204674 30222.475210822
63871	2452174 6889 19786 24394 171 220 197 483.14999389648 732.86573791504 103378.37480164 55270601.875066
63870	2459063 6870 19786 24394 171 220 197 174.19293212891 486.87359619141 79163.364959717 33788981.531497
63902	2465933 5547 21108 24638 182.5 223.25 164 0.973 11.200708441096 490.8003295669 2535.7666820118
63901	2471480 5248 21108 24638 182.5 223.25 164 -3.764949798584 2.5 35.795072555542 266.86531131022
63900	2476728 5465 21079 24638 182.25 223.25 165 5.6500000953674 15.034778594971 2179.9479169846 29937.569656692
63899	2482193 5805 21050 24638 182 223.25 166 486.85000610352 732.47618103027 89298.703704834 48989832.744453
63898	2487998 5802 21050 24638 182 223.25 166 486.85000610352 785.82187652588 95003.059547424 56149094.804088
63895	2493800 5534 20942 24638 181 223.25 170 0.973 11.648172402475 561.25304139305 3352.2043941402
63894	2499334 5326 20942 24638 181 223.25 170 -3.001277923584 2.5 38.171613693237 342.11358753749
63893	2504660 5678 20914 24638 180.75 223.25 171 5.6500000953674 15.64999961853 2181.0233459473 29337.692545046
63892	2510338 6015 20885 24638 180.5 223.25 172 237.55047607422 483.14999389648 74940.722259521 33596882.180762
63891	2516353 5992 20885 24638 180.5 223.25 172 184.17810058594 483.14999389648 68572.75769043 29093418.10828
vector 63968  IntersectionExampleScenario.node[83].veinsmobility  posx  ETV
vector 63969  IntersectionExampleScenario.node[83].veinsmobility  posy  ETV
vector 63975  IntersectionExampleScenario.node[84].veinsmobility  posx  ETV
vector 63976  IntersectionExampleScenario.node[84].veinsmobility  posy  ETV
vector 63970  IntersectionExampleScenario.node[83].veinsmobility  speed  ETV
vector 63977  IntersectionExampleScenario.node[84].veinsmobility  speed  ETV
vector 63971  IntersectionExampleScenario.node[83].veinsmobility  acceleration  ETV
vector 63972  IntersectionExampleScenario.node[83].veinsmobility  co2emission  ETV
vector 63978  IntersectionExampleScenario.node[84].veinsmobility  acceleration  ETV
vector 63979  IntersectionExampleScenario.node[84].veinsmobility  co2emission  ETV
vector 63982  IntersectionExampleScenario.node[85].veinsmobility  posx  ETV
vector 63983  IntersectionExampleScenario.node[85].veinsmobility  posy  ETV
vector 63984  IntersectionExampleScenario.node[85].veinsmobility  speed  ETV
vector 63985  IntersectionExampleScenario.node[85].veinsmobility  acceleration  ETV
vector 63986  IntersectionExampleScenario.node[85].veinsmobility  co2emission  ETV
vector 63989  IntersectionExampleScenario.node[86].veinsmobility  posx  ETV
vector 63990  IntersectionExampleScenario.node[86].veinsmobility  posy  ETV
vector 63991  IntersectionExampleScenario.node[86].veinsmobility  speed  ETV
vector 63992  IntersectionExampleScenario.node[86].veinsmobility  acceleration  ETV
vector 63993  IntersectionExampleScenario.node[86].veinsmobility  co2emission  ETV
63853	2523949 7549 19602 25224 169.25 230 244 0.973 11.648172402475 625.3571387148 3047.7131841254
63852	2531498 6776 19602 25224 169.25 230 244 -7.2641291618347 4 39.699392318726 482.34414293843
63851	2538274 7208 19575 25224 169 230 245 0 15.64999961853 2215.5003451109 31979.396653607
63850	2545482 8592 19548 25224 168.75 230 246 235.89093017578 785.82187652588 126205.36389923 68874799.936949
63849	2554074 8609 19548 25224 168.75 230 246 483.14999389648 483.14999389648 118854.89849854 57424743.484134
63888	2562683 6751 20632 25316 178.25 231 212 0.973 12.099024792222 590.80554010884 3191.5036320763
63887	2569434 6963 20632 25316 178.25 231 212 -3.7589325904846 2.5000002384186 41.227170944214 355.58056091419
63886	2576397 7199 20603 25316 178 231 213 0 16.27499961853 2205.1224391852 30267.299411013
63885	2583596 7481 20574 25316 177.75 231 214 482.99017333984 785.82187652588 119159.54636383 68235544.582342
63884	2591077 7475 20574 25316 177.75 231 214 483.14999389648 733.13011169434 111440.96127319 59069157.106508
63909	2598552 5720 21750 25431 188.5 232.25 176 0.973 12.099024792222 550.22404086774 3135.4095720606
63908	2604272 5613 21750 25431 188.5 232.25 176 -2.1448249816895 2.5 41.227170944214 297.29825828485
63907	2609885 5970 21723 25431 188.25 232.25 177 3.6549737453461 16.27499961853 2214.524920702 30595.129447518
63906	2615855 6216 21696 25431 188 232.25 178 237.80822753906 785.82187652588 93551.97026825 53176474.770294
63905	2622071 6229 21696 25431 188 232.25 178 483.14999389648 483.14999389648 86000.698913574 41551237.155187
vector 63996  IntersectionExampleScenario.node[87].veinsmobility  posx  ETV
vector 63997  IntersectionExampleScenario.node[87].veinsmobility  posy  ETV
vector 63998  IntersectionExampleScenario.node[87].veinsmobility  speed  ETV
vector 63999  IntersectionExampleScenario.node[87].veinsmobility  acceleration  ETV
vector 64000  IntersectionExampleScenario.node[87].veinsmobility  co2emission  ETV
vector 64003  IntersectionExampleScenario.node[88].veinsmobility  posx  ETV
vector 64004  IntersectionExampleScenario.node[88].veinsmobility  posy  ETV
vector 64005  IntersectionExampleScenario.node[88].veinsmobility  speed  ETV
vector 64006  IntersectionExampleScenario.node[88].veinsmobility  acceleration  ETV
vector 64007  IntersectionExampleScenario.node[88].veinsmobility  co2emission  ETV
vector 64010  IntersectionExampleScenario.node[89].veinsmobility  posx  ETV
vector 64011  IntersectionExampleScenario.node[89].veinsmobility  posy  ETV
vector 64012  IntersectionExampleScenario.node[89].veinsmobility  speed  ETV
vector 64017  IntersectionExampleScenario.node[90].veinsmobility  posx  ETV
vector 64018  IntersectionExampleScenario.node[90].veinsmobility  posy  ETV
vector 64024  IntersectionExampleScenario.node[91].veinsmobility  posx  ETV
vector 64025  IntersectionExampleScenario.node[91].veinsmobility  posy  ETV
vector 64013  IntersectionExampleScenario.node[89].veinsmobility  acceleration  ETV
vector 64014  IntersectionExampleScenario.node[89].veinsmobility  co2emission  ETV
vector 64019  IntersectionExampleScenario.node[90].veinsmobility  speed  ETV
vector 64026  IntersectionExampleScenario.node[91].veinsmobility  speed  ETV
vector 64020  IntersectionExampleScenario.node[90].veinsmobility  acceleration  ETV
vector 64021  IntersectionExampleScenario.node[90].veinsmobility  co2emission  ETV
vector 64027  IntersectionExampleScenario.node[91].veinsmobility  acceleration  ETV
vector 64028  IntersectionExampleScenario.node[91].veinsmobility  co2emission  ETV
63916	2630305 5333 22919 26172 200 239 157 0.973 11.648172402475 493.01781442907 2672.6083752878
63915	2635638 5169 22919 26172 200 239 157 -3.3339538574219 2.5 38.341367721558 235.78674441632
63914	2640807 5244 22896 26172 199.75 239 158 5.6500000953674 15.64999961853 2204.4430036545 31679.333734999
63913	2646051 5556 22873 26172 199.5 239 159 483.14999389648 785.82187652588 90944.669059753 53792106.762674
63912	2651607 5558 22873 26172 199.5 239 159 483.14999389648 732.30502319336 85174.529403687 46574485.371282
vector 64031  IntersectionExampleScenario.node[92].veinsmobility  posx  ETV
vector 64032  IntersectionExampleScenario.node[92].veinsmobility  posy  ETV
vector 64033  IntersectionExampleScenario.node[92].veinsmobility  speed  ETV
vector 64034  IntersectionExampleScenario.node[92].veinsmobility  acceleration  ETV
vector 64035  IntersectionExampleScenario.node[92].veinsmobility  co2emission  ETV
vector 64038  IntersectionExampleScenario.node[93].veinsmobility  posx  ETV
vector 64039  IntersectionExampleScenario.node[93].veinsmobility  posy  ETV
vector 64040  IntersectionExampleScenario.node[93].veinsmobility  speed  ETV
vector 64041  IntersectionExampleScenario.node[93].veinsmobility  acceleration  ETV
vector 64042  IntersectionExampleScenario.node[93].veinsmobility  co2emission  ETV
63881	2657967 8466 20349 26976 175.75 245.25 279 0.973 11.648172402475 654.48871804777 3038.9580097234
63880	2666433 7678 20349 26976 175.75 245.25 279 -19.111888885498 4 38.511121749878 804.45031853117
63879	2674111 7899 20320 26976 175.5 245.25 280 0 15.64999961853 2221.6036901474 31793.074045037
63878	2682010 9816 20291 26976 175.25 245.25 281 179.81719970703 486.85000610352 120478.81869507 53883117.577934
63877	2691826 9831 20291 26976 175.25 245.25 281 236.75640869141 486.85000610352 128415.89648438 59832907.145658
vector 64045  IntersectionExampleScenario.node[94].veinsmobility  posx  ETV
vector 64046  IntersectionExampleScenario.node[94].veinsmobility  posy  ETV
vector 64047  IntersectionExampleScenario.node[94].veinsmobility  speed  ETV
vector 64048  IntersectionExampleScenario.node[94].veinsmobility  acceleration  ETV
vector 64049  IntersectionExampleScenario.node[94].veinsmobility  co2emission  ETV
vector 64052  IntersectionExampleScenario.node[95].veinsmobility  posx  ETV
vector 64053  IntersectionExampleScenario.node[95].veinsmobility  posy  ETV
vector 64054  IntersectionExampleScenario.node[95].veinsmobility  speed  ETV
vector 64055  IntersectionExampleScenario.node[95].veinsmobility  acceleration  ETV
vector 64056  IntersectionExampleScenario.node[95].veinsmobility  co2emission  ETV
vector 64059  IntersectionExampleScenario.node[96].veinsmobility  posx  ETV
vector 64060  IntersectionExampleScenario.node[96].veinsmobility  posy  ETV
vector 64066  IntersectionExampleScenario.node[97].veinsmobility  posx  ETV
vector 64067  IntersectionExampleScenario.node[97].veinsmobility  posy  ETV
[...]
vector 67598  IntersectionExampleScenario.node[601].veinsmobility  co2emission  ETV
vector 67601  IntersectionExampleScenario.node[602].veinsmobility  posx  ETV
vector 67602  IntersectionExampleScenario.node[602].veinsmobility  posy  ETV
vector 67603  IntersectionExampleScenario.node[602].veinsmobility  speed  ETV
vector 67604  IntersectionExampleScenario.node[602].veinsmobility  acceleration  ETV
vector 67605  IntersectionExampleScenario.node[602].veinsmobility  co2emission  ETV
67472	21086438 7122 174302 180716 1701.5 1753.25 208 0.973 11.648172402475 582.43311334802 3021.5284908266
67471	21093560 7205 174302 180716 1701.5 1753.25 208 -4.5 2.5 39.869146347046 376.57860443299
67470	21100765 7448 174267 180716 1701.25 1753.25 209 0.29178738594055 15.663236618042 2267.0330337286 30235.360607652
67469	21108213 7765 174232 180716 1701 1753.25 210 483.14999389648 733.81294250488 109724.01034546 58383307.936267
67468	21115978 7757 174232 180716 1701 1753.25 210 170.78198242188 486.85000610352 84471.465789795 36018461.91126
vector 67608  IntersectionExampleScenario.node[603].veinsmobility  posx  ETV
vector 67609  IntersectionExampleScenario.node[603].veinsmobility  posy  ETV
vector 67610  IntersectionExampleScenario.node[603].veinsmobility  speed  ETV
vector 67611  IntersectionExampleScenario.node[603].veinsmobility  acceleration  ETV
vector 67612  IntersectionExampleScenario.node[603].veinsmobility  co2emission  ETV
67493	21124141 5797 175946 180865 1714 1754.5 163 0.973 11.200708441096 470.43190161184 2408.3208745714
67492	21129938 5714 175946 180865 1714 1754.5 163 -3.7343559265137 2.5 35.116056442261 214.8508394417
67491	21135652 5787 175913 180865 1713.75 1754.5 164 5.6500000953674 15.02499961853 2198.9636135101 30184.891957495
67490	21141439 6095 175879 180865 1713.5 1754.5 165 238.25219726562 486.85000610352 71580.136108398 32040407.909613
67489	21147534 6099 175879 180865 1713.5 1754.5 165 482.95135498047 785.82187652588 94339.804237366 55757739.805556
vector 67615  IntersectionExampleScenario.node[604].veinsmobility  posx  ETV
vector 67616  IntersectionExampleScenario.node[604].veinsmobility  posy  ETV
67479	21153789 6596 175053 180927 1707 1755 193 0.973 11.648172402475 554.21980181043 2980.727517086
67478	21160385 6525 175053 180927 1707 1755 193 -4.2813377380371 2.5 38.511121749878 345.89669606821
67477	21166910 6944 175018 180927 1706.75 1755 194 1.8841089010239 15.64999961853 2226.17608428 29032.8754187
67476	21173854 7214 174983 180927 1706.5 1755 195 483.14999389648 483.14999389648 94214.248809814 45519613.737424
67475	21181068 7187 174983 180927 1706.5 1755 195 184.17810058594 734.90995788574 86541.811523438 42638598.869462
vector 67617  IntersectionExampleScenario.node[604].veinsmobility  speed  ETV
vector 67618  IntersectionExampleScenario.node[604].veinsmobility  acceleration  ETV
vector 67619  IntersectionExampleScenario.node[604].veinsmobility  co2emission  ETV
67514	21188505 5493 176536 181092 1718.25 1756.25 153 0.96431320967444 11.200708441096 524.49647505136 2691.5231473621
67513	21193998 5375 176536 181092 1718.25 1756.25 153 -4.1684341430664 2.5 43.434202194214 241.1779230779
67512	21199373 5418 176499 181092 1718 1756.25 154 5.6500000953674 16.541835784912 2230.2669496536 33478.108746932
67511	21204791 5732 176462 181092 1717.75 1756.25 155 235.60290527344 486.85000610352 67475.252258301 30287320.18946
67510	21210523 5727 176462 181092 1717.75 1756.25 155 482.95205688477 790.18281555176 88999.176559448 52908023.49973
67486	21216250 6504 175879 181613 1713.5 1760.25 188 0.973 11.648172402475 564.27911841875 3010.7761117277
67485	21222754 6205 175879 181613 1713.5 1760.25 188 -8.2392740249634 4 38.341367721558 492.51948830389
67484	21228959 6440 175846 181613 1713.25 1760.25 189 0 15.64999961853 2211.5077414513 31346.62723608
67483	21235399 7014 175813 181613 1713 1760.25 190 236.58178710938 785.82187652588 98308.702384949 55023261.574558
67482	21242413 7029 175813 181613 1713 1760.25 190 483.14999389648 483.14999389648 91798.498840332 44352444.154413
67500	21249442 6636 176082 181761 1715 1761.5 187 0.973 11.810082123732 572.20192690986 3054.5797785373
67499	21256078 6241 176082 181761 1715 1761.5 187 -4.5 2.5000009536743 39.699392318726 463.5429753175
67498	21262319 6664 176047 181761 1714.75 1761.5 188 0 15.875 2269.6300874278 32136.666243688
67497	21268983 6982 176012 181761 1714.5 1761.5 189 486.85000610352 806.11563110352 107952.76963043 63813037.737502
67496	21275965 6982 176012 181761 1714.5 1761.5 189 236.09686279297 483.14999389648 83252.668457031 37651440.197728
vector 67622  IntersectionExampleScenario.node[605].veinsmobility  posx  ETV
vector 67623  IntersectionExampleScenario.node[605].veinsmobility  posy  ETV
vector 67624  IntersectionExampleScenario.node[605].veinsmobility  speed  ETV
vector 67625  IntersectionExampleScenario.node[605].veinsmobility  acceleration  ETV
vector 67626  IntersectionExampleScenario.node[605].veinsmobility  co2emission  ETV
vector 67629  IntersectionExampleScenario.node[606].veinsmobility  posx  ETV
vector 67630  IntersectionExampleScenario.node[606].veinsmobility  posy  ETV
vector 67631  IntersectionExampleScenario.node[606].veinsmobility  speed  ETV
vector 67632  IntersectionExampleScenario.node[606].veinsmobility  acceleration  ETV
vector 67633  IntersectionExampleScenario.node[606].veinsmobility  co2emission  ETV
67507	21283759 7557 176499 183222 1718 1774.75 228 0.973 12.099024792222 616.42474100426 3241.3486027368
67506	21291316 7135 176499 183222 1718 1774.75 228 -7.6212306022644 4 40.548154830933 500.20344116285
67505	21298451 7257 176462 183222 1717.75 1774.75 229 0 16.27499961853 2198.9823480844 32005.186688822
67504	21305708 8485 176427 183222 1717.5 1774.75 230 184.17810058594 486.85000610352 96972.282012939 42898760.180857
67503	21314193 8510 176427 183222 1717.5 1774.75 230 237.71087646484 486.85000610352 103904.60079956 47995235.502127
vector 67636  IntersectionExampleScenario.node[607].veinsmobility  posx  ETV
vector 67637  IntersectionExampleScenario.node[607].veinsmobility  posy  ETV
vector 67638  IntersectionExampleScenario.node[607].veinsmobility  speed  ETV
vector 67639  IntersectionExampleScenario.node[607].veinsmobility  acceleration  ETV
vector 67640  IntersectionExampleScenario.node[607].veinsmobility  co2emission  ETV
vector 67643  IntersectionExampleScenario.node[608].veinsmobility  posx  ETV
vector 67644  IntersectionExampleScenario.node[608].veinsmobility  posy  ETV
vector 67645  IntersectionExampleScenario.node[608].veinsmobility  speed  ETV
vector 67646  IntersectionExampleScenario.node[608].veinsmobility  acceleration  ETV
vector 67647  IntersectionExampleScenario.node[608].veinsmobility  co2emission  ETV
67556	21323515 6615 178159 183451 1729.5 1777.5 193 0.973 11.36141391502 539.27073646059 2746.1152357322
67555	21330130 6687 178159 183451 1729.5 1777.5 193 -2.1334838867188 2.5 36.98334312439 302.31545152606
67554	21336817 6857 178121 183451 1729.25 1777.5 194 1.9905220270157 15.25 2187.7965651751 28443.53603738
67553	21343674 7181 178082 183451 1729 1777.5 195 184.17810058594 483.22036743164 79022.005950928 33856238.427628
67552	21350855 7210 178082 183451 1729 1777.5 195 486.85000610352 733.80256652832 103344.77429199 55787701.793656
67570	21358065 5743 179488 183690 1741.25 1781 160 0.973 11.200708441096 475.32180781454 2477.8769212304
67569	21363808 5588 179488 183690 1741.25 1781 160 -3.8476943969727 2.5 35.625318527222 205.43367460618
67568	21369396 5732 179465 183690 1741 1781 161 5.6500000953674 15.02499961853 2211.6848201752 30883.54590856
67567	21375128 5966 179442 183690 1740.75 1781 162 184.17810058594 732.0418548584 72678.117340088 36859784.468552
67566	21381094 5993 179442 183690 1740.75 1781 162 486.85000610352 486.85000610352 78869.70098877 38397714.407765
67584	21387087 5632 179661 183750 1743 1782 157 0.973 12.353032912318 530.73228479222 2945.2926739956
67583	21392719 5457 179661 183750 1743 1782 157 -3.4343147277832 2.5 41.736440658569 257.3901566313
67582	21398176 5520 179634 183750 1742.75 1782 158 5.6500000953674 16.625 2282.2440824509 34121.200228209
67581	21403696 5860 179607 183750 1742.5 1782 159 164.94219970703 486.85000610352 61900.039093018 26132348.642005
67580	21409556 5869 179607 183750 1742.5 1782 159 237.71142578125 486.85000610352 69477.362182617 31278102.396059
vector 67650  IntersectionExampleScenario.node[609].veinsmobility  posx  ETV
vector 67651  IntersectionExampleScenario.node[609].veinsmobility  posy  ETV
vector 67652  IntersectionExampleScenario.node[609].veinsmobility  speed  ETV
vector 67653  IntersectionExampleScenario.node[609].veinsmobility  acceleration  ETV
vector 67654  IntersectionExampleScenario.node[609].veinsmobility  co2emission  ETV
67591	21415831 5661 179946 183948 1745.75 1785 158 0.973 12.099024792222 522.74521982339 2945.5275582198
67590	21421492 5527 179946 183948 1745.75 1785 158 -4.1069984436035 2.5000038146973 40.038900375366 243.50294920567
67589	21427019 5657 179921 183948 1745.5 1785 159 5.6500000953674 16.27499961853 2319.8478851318 34580.58774848
67588	21432676 5891 179896 183948 1745.25 1785 160 160.33673095703 734.87297058105 69982.809783936 35239798.314281
67587	21438567 5920 179896 183948 1745.25 1785 160 486.85000610352 486.85000610352 77896.000976562 37923668.550879
67521	21444487 8802 176899 184203 1720.75 1788.75 273 0.96333723109819 12.099024792222 658.44404482983 3293.7320370663
67520	21453289 8141 176899 184203 1720.75 1788.75 273 -18.907459259033 4 40.208654403687 800.19452991116
67519	21461430 8312 176862 184203 1720.5 1788.75 274 0 16.27499961853 2267.3055343628 33220.51968961
67518	21469742 10176 176825 184203 1720.25 1788.75 275 238.72613525391 486.85000610352 125837.78775024 58676246.777161
67517	21479918 10163 176825 184203 1720.25 1788.75 275 483.14999389648 803.59610748291 150021.97556305 84295151.373271
67528	21490081 8325 177572 184220 1725.5 1789 255 0.973 11.648172402475 623.84552980001 2985.3213089974
67527	21498406 7624 177572 184220 1725.5 1789 255 -7.7750906944275 4 38.511121749878 476.52721114425
67526	21506030 7936 177537 184220 1725.25 1789 256 0 15.64999961853 2186.543571353 30924.021030557
67525	21513966 9501 177502 184220 1725 1789 257 483.14999389648 734.23628234863 132621.22491455 69574078.593538
67524	21523467 9485 177502 184220 1725 1789 257 184.17810058594 486.85000610352 109460.44110107 48716218.056382
67577	21532952 6493 179607 184283 1742.5 1790 191 0.973 11.990504229548 560.32293179989 3039.17335449
67576	21539445 6665 179607 184283 1742.5 1790 191 -2.1482048034668 2.5 39.869146347046 319.29897897963
67575	21546110 6924 179582 184283 1742.25 1790 192 1.4145896434784 16.125 2219.5735994577 30334.00817719
67574	21553034 7139 179557 184283 1742 1790 193 483.14999389648 483.14999389648 93247.948822021 45052745.904219
67573	21560173 7100 179557 184283 1742 1790 193 184.17810058594 733.97895812988 86498.37121582 42866243.818939
vector 67657  IntersectionExampleScenario.node[610].veinsmobility  posx  ETV
vector 67658  IntersectionExampleScenario.node[610].veinsmobility  posy  ETV
vector 67659  IntersectionExampleScenario.node[610].veinsmobility  speed  ETV
67549	21567508 8682 178045 184366 1728.75 1791.5 252 0.973 11.648172402475 608.47809062976 2909.6274839241
67548	21576190 9036 178045 184366 1728.75 1791.5 252 -3.6821765899658 2.5 38.511121749878 351.75119795267
67547	21585226 9042 178008 184366 1728.5 1791.5 253 0 15.64999961853 2081.6451976495 27994.758653936
67546	21594268 9393 177970 184366 1728.25 1791.5 254 237.78869628906 486.85000610352 115333.78485107 53477694.22878
67545	21603661 9367 177970 184366 1728.25 1791.5 254 482.9059753418 756.11563110352 136983.29941559 75408186.221071
vector 67660  IntersectionExampleScenario.node[610].veinsmobility  acceleration  ETV
vector 67661  IntersectionExampleScenario.node[610].veinsmobility  co2emission  ETV
67598	21613199 5838 180575 184464 1752 1793.25 166 0.973 11.54047740176 507.09883569039 2769.8743019042
67597	21619037 5707 180575 184464 1752 1793.25 166 -3.0516395568848 2.5 37.32285118103 239.22428128127
67596	21624744 5943 180548 184464 1751.75 1793.25 167 5.6500000953674 15.5 2219.7972984314 30407.073031847
67595	21630687 6216 180521 184464 1751.5 1793.25 168 483.14999389648 483.14999389648 81169.198974609 39216897.989165
67594	21636903 6179 180521 184464 1751.5 1793.25 168 184.17810058594 734.3380279541 75144.636047363 37844932.603284
67535	21643082 9222 177821 184503 1727.25 1794 268 0.973 11.00486315618 636.62092520756 2773.7470387561
67534	21652304 9750 177821 184503 1727.25 1794 268 -4.5 2.5 37.15309715271 422.86082155405
67533	21662054 9726 177784 184503 1727 1794 269 0 15.283130645752 2197.7235699724 27433.139287533
67532	21671780 9971 177747 184503 1726.75 1794 270 238.4697265625 486.85000610352 122998.03057861 57166749.611452
67531	21681751 9967 177747 184503 1726.75 1794 270 482.95010375977 785.82187652588 150373.9093399 85964801.793095
vector 67664  IntersectionExampleScenario.node[611].veinsmobility  posx  ETV
vector 67665  IntersectionExampleScenario.node[611].veinsmobility  posy  ETV
vector 67666  IntersectionExampleScenario.node[611].veinsmobility  speed  ETV
vector 67667  IntersectionExampleScenario.node[611].veinsmobility  acceleration  ETV
vector 67668  IntersectionExampleScenario.node[611].veinsmobility  co2emission  ETV
67605	21692124 6009 180687 184559 1753 1795 169 0.973 11.440161957732 504.75016824714 2489.5409202124
67604	21698133 5960 180687 184559 1753 1795 169 -3.3119163513184 2.5 36.98334312439 213.55918932191
67603	21704093 6110 180658 184559 1752.75 1795 170 5.6500000953674 15.360035896301 2299.7432317734 31827.88822449
67602	21710203 6326 180629 184559 1752.5 1795 171 483.14999389648 483.14999389648 82618.648956299 39917199.738971
67601	21716529 6299 180629 184559 1752.5 1795 171 162.00311279297 732.04321289062 74615.086791992 37279333.217142
67542	21722828 9364 177970 184574 1728.25 1795.25 269 0.973 11.810082123732 700.5253803425 3310.4813776952
67541	21732192 9515 177970 184574 1728.25 1795.25 269 -4.5 2.5000001192093 42.924703598022 571.9676399414
67540	21741707 9664 177933 184574 1728 1795.25 270 0 16.449167251587 2267.8021334037 29967.463615888
67539	21751371 10022 177895 184574 1727.75 1795.25 271 486.85000610352 731.92077636719 139527.44602966 72856076.684442
67538	21761393 10001 177895 184574 1727.75 1795.25 271 486.85000610352 807.99687957764 153419.47173309 89243795.937242
67563	21771394 7582 179488 184860 1741.25 1800 236 0.973 12.099024792222 598.76422908828 3166.7048635299
67562	21778976 7164 179488 184860 1741.25 1800 236 -8.5031824111938 4 40.37847328186 508.04601133567
67561	21786140 7176 179465 184860 1741 1800 237 0 16.27499961853 1897.3638467789 27184.872929083
67560	21793316 8789 179442 184860 1740.75 1800 238 483.14999389648 785.82187652588 130423.18090057 73472204.729812
67559	21802105 8802 179442 184860 1740.75 1800 238 483.14999389648 656.99461364746 118997.21417236 59891165.978245
67612	21810907 5583 180865 184860 1754.5 1800 183 0.973 12.099024792222 364.4817079568 1687.8195634739
67611	21816490 5395 180865 184860 1754.5 1800 183 -7.1174993515015 2.5 -22.60000038147 335.2403016705
67610	21821885 5419 180834 184860 1754.25 1800 184 0 16.27499961853 1147.2661423683 16586.594176966
67609	21827304 6811 180803 184860 1754 1800 185 184.17810058594 471.60000610352 74701.707489014 31884574.141309
67608	21834115 6843 180803 184860 1754 1800 185 486.85000610352 486.85000610352 90067.25112915 43849241.761954
67619	21840958 5947 180993 184860 1755.5 1800 179 0.973 11.810082123732 504.37027498088 2857.2273161422
67618	21846905 6265 180993 184860 1755.5 1800 179 -3.9381833076477 2.5000000596046 38.513643264771 345.87189553536
67617	21853170 6326 180960 184860 1755.25 1800 180 0 15.875 1764.7082558759 22455.411508683
67616	21859496 6681 180927 184860 1755 1800 181 486.85000610352 785.82187652588 103440.42594147 60803832.480088
67615	21866177 6692 180927 184860 1755 1800 181 341.69586181641 483.14999389648 84662.531646729 39816416.700358
67626	21872869 4693 182249 184860 1765.75 1800 138 0.973 12.553400930962 504.66453212474 3379.7519175383
67625	21877562 4528 182249 184860 1765.75 1800 138 -3.2683639526367 2.5 42.928838729858 343.90055467485
67624	21882090 4846 182220 184860 1765.5 1800 139 5.2924861907959 16.89999961853 1703.4585886002 22787.505951155
67623	21886936 5162 182191 184860 1765.25 1800 140 482.94458007812 785.82187652588 82502.210105896 50066122.423503
67622	21892098 5177 182191 184860 1765.25 1800 140 483.14999389648 607.05444335938 69679.425842285 34815409.545214
67633	21897275 4293 182395 184860 1767 1800 133 0.97223939240464 11.648172402475 309.74110239259 1491.5896032792
67632	21901568 4047 182395 184860 1767 1800 133 -8.4531221389771 2.5 -22.60000038147 374.77943910675
67631	21905615 4269 182366 184860 1766.75 1800 134 0 15.64999961853 1146.4337947369 16302.230793871
67630	21909884 4994 182336 184860 1766.5 1800 135 483.14999389648 483.14999389648 65225.249176025 31513578.741293
67629	21914878 4970 182336 184860 1766.5 1800 135 184.17810058594 471.60000610352 50896.140472412 20592408.67106
67640	21919848 3077 183364 184860 1776.5 1800 95 0.973 12.099024792222 260.8039980199 1529.0335497348
67639	21922925 3450 183364 184860 1776.5 1800 95 -2.1438636779785 2.5 -11.253136634827 182.93356263851
67638	21926375 3538 183343 184860 1776.25 1800 96 2.8367159366608 16.27499961853 1085.1177992821 14260.248232419
67637	21929913 3561 183322 184860 1776 1800 97 184.17810058594 454.59378051758 32506.537811279 11695067.479784
67636	21933474 3587 183322 184860 1776 1800 97 486.85000610352 486.85000610352 47224.450592041 22991224.05897
67647	21937061 3258 183430 184860 1777.25 1800 92 0.973 11.648172402475 274.89542325937 1465.1664179417
67646	21940319 3082 183430 184860 1777.25 1800 92 -3.5987949371338 2.5 5.3999996185303 202.96457161413
67645	21943401 3281 183408 184860 1777 1800 93 5.6500000953674 15.64999961853 1218.4676613808 16961.31127763
67644	21946682 3466 183385 184860 1776.75 1800 94 486.6611328125 785.82187652588 59557.035987854 38632048.390002
67643	21950148 3476 183385 184860 1776.75 1800 94 475.3415222168 483.14999389648 45388.841949463 21916590.381615
67654	21953624 2331 183829 184860 1783.25 1800 68 0.973 11.648172402475 220.48711884097 1356.1697795542
67653	21955955 2322 183829 184860 1783.25 1800 68 -2.2547836303711 2.5 12.033514022827 151.20937667147
67652	21958277 2539 183812 184860 1783 1800 69 5.6500000953674 15.64999961853 883.54881191254 11827.400325342
67651	21960816 2570 183795 184860 1782.75 1800 70 184.17810058594 402.34405517578 20347.265533447 6259857.9134722
67650	21963386 2589 183795 184860 1782.75 1800 70 486.85000610352 486.85000610352 34079.500427246 16591604.991009
67661	21965975 1252 184381 184860 1791.75 1800 34 1.9337556822354 11.648172402475 172.93833387965 1272.1136586143
67660	21967227 1136 184381 184860 1791.75 1800 34 -0.075153350830078 2.5 39.701078414917 100.01289994407
67659	21968363 1281 184366 184860 1791.5 1800 35 5.6500000953674 15.64999961853 461.62141418457 6460.913024368
67658	21969644 1332 184351 184860 1791.25 1800 36 486.85000610352 486.85000610352 17526.600219727 8532825.4239478
67657	21970976 1332 184351 184860 1791.25 1800 36 675.63456726074 785.82187652588 26614.47190094 19719664.144784
67668	21972308 772 184559 184860 1795 1800 21 1.8321577376031 11.200708441096 134.42770598109 1076.5188359254
67667	21973080 625 184559 184860 1795 1800 21 -0.086727142333984 2.5 37.21483039856 93.766638085584
67666	21973705 803 184544 184860 1794.75 1800 22 5.6500000953674 15.02499961853 255.24350547791 3187.9460112958
67665	21974508 833 184529 184860 1794.5 1800 23 184.17810058594 243.00421142578 4780.5311889648 1001542.0355738
67664	21975341 850 184529 184860 1794.5 1800 23 486.85000610352 486.85000610352 11197.550140381 5451527.3541888
63383	21976191 639 0 184859 0 1800 31 0 28 535 10195
63384	21976830 656 0 184859 0 1800 31 0 213 3375 488833
