file 20848337 1591416054                                        
version 2
run nodebug-5-20200605-23:57:25-5072
attr configname nodebug
attr datetime 20200605-23:57:25
attr experiment nodebug
attr inifile omnetpp.ini
attr iterationvars ""
attr iterationvars2 $repetition=5
attr measurement ""
attr network "\"org.car2x.veins.modules.application.ExtTraCIScenarioManagerLaunchd.IntersectionExampleScenario\""
attr processid 5072
attr repetition 5
attr replication #5
attr resultdir results
attr runnumber 5
attr seedset 5
param **.coreDebug false
param **.debug false
param *.**.nic.mac1609_4.bitrate 18Mbps
param *.**.nic.mac1609_4.txPower 20mW
param *.**.nic.mac1609_4.useServiceChannel false
param *.**.nic.phy80211p.analogueModels "xmldoc(\"config.xml\")"
param *.**.nic.phy80211p.decider "xmldoc(\"config.xml\")"
param *.**.nic.phy80211p.sensitivity -89dBm
param *.**.nic.phy80211p.thermalNoise -110dBm
param *.**.nic.phy80211p.usePropagationDelay true
param *.**.nic.phy80211p.useThermalNoise true
param *.annotations.draw false
param *.connectionManager.alpha 2.0
param *.connectionManager.carrierFrequency "5.890e9 Hz"
param *.connectionManager.pMax 20mW
param *.connectionManager.sat -89dBm
param *.connectionManager.sendDirect true
param *.manager.autoShutdown true
param *.manager.host "\"localhost\""
param *.manager.launchConfig "xmldoc(\"paramics.launchd.xml\")"
param *.manager.margin 25
param *.manager.moduleDisplayString "\"\""
param *.manager.moduleName "\"node\""
param *.manager.moduleType "\"org.car2x.veins.nodes.Car\""
param *.manager.port 9999
param *.manager.updateInterval 250ms
param *.node[*0].veinsmobility.accidentCount 0
param *.node[*0].veinsmobility.accidentDuration 30s
param *.node[*0].veinsmobility.accidentStart 75s
param *.node[*].appl.LiderSelectZoneRadio 55.0
param *.node[*].appl.ShareDataZoneRadio 110.0
param *.node[*].appl.TiempoSemaforo 30.0
param *.node[*].appl.beaconInterval 1s
param *.node[*].appl.beaconPriority 3
param *.node[*].appl.dataOnSch false
param *.node[*].appl.dataPriority 2
param *.node[*].appl.debug false
param *.node[*].appl.headerLength "256 bit"
param *.node[*].appl.maxOffset 0.005s
param *.node[*].appl.sendBeacons false
param *.node[*].appl.sendData true
param *.node[*].applType "\"Dummy\""
param *.node[*].mobilityType "\"TraCIMobility\""
param *.node[*].mobilityType.debug true
param *.node[*].veinsmobility.x 0
param *.node[*].veinsmobility.y 0
param *.node[*].veinsmobility.z 1.895
param *.node[*].veinsmobilityType "\"org.car2x.veins.modules.mobility.traci.TraCIMobility\""
param *.node[*].veinsmobilityType.debug true
param *.playgroundSizeX 8500m
param *.playgroundSizeY 8500m
param *.playgroundSizeZ 50m
param *.world.use2D false
param *.world.useTorus false

vector 7507  IntersectionExampleScenario.manager  vehiclesinsim  ETV
attr type  int
vector 7508  IntersectionExampleScenario.manager  realtime  ETV
attr type  int
attr unit  s
vector 7511  IntersectionExampleScenario.node[0].veinsmobility  posx  ETV
vector 7512  IntersectionExampleScenario.node[0].veinsmobility  posy  ETV
vector 7513  IntersectionExampleScenario.node[0].veinsmobility  speed  ETV
vector 7518  IntersectionExampleScenario.node[1].veinsmobility  posx  ETV
vector 7519  IntersectionExampleScenario.node[1].veinsmobility  posy  ETV
vector 7525  IntersectionExampleScenario.node[2].veinsmobility  posx  ETV
vector 7526  IntersectionExampleScenario.node[2].veinsmobility  posy  ETV
vector 7514  IntersectionExampleScenario.node[0].veinsmobility  acceleration  ETV
vector 7515  IntersectionExampleScenario.node[0].veinsmobility  co2emission  ETV
vector 7520  IntersectionExampleScenario.node[1].veinsmobility  speed  ETV
vector 7527  IntersectionExampleScenario.node[2].veinsmobility  speed  ETV
vector 7521  IntersectionExampleScenario.node[1].veinsmobility  acceleration  ETV
vector 7522  IntersectionExampleScenario.node[1].veinsmobility  co2emission  ETV
vector 7528  IntersectionExampleScenario.node[2].veinsmobility  acceleration  ETV
vector 7529  IntersectionExampleScenario.node[2].veinsmobility  co2emission  ETV
vector 7532  IntersectionExampleScenario.node[3].veinsmobility  posx  ETV
vector 7533  IntersectionExampleScenario.node[3].veinsmobility  posy  ETV
vector 7534  IntersectionExampleScenario.node[3].veinsmobility  speed  ETV
vector 7535  IntersectionExampleScenario.node[3].veinsmobility  acceleration  ETV
vector 7536  IntersectionExampleScenario.node[3].veinsmobility  co2emission  ETV
vector 7539  IntersectionExampleScenario.node[4].veinsmobility  posx  ETV
vector 7540  IntersectionExampleScenario.node[4].veinsmobility  posy  ETV
vector 7541  IntersectionExampleScenario.node[4].veinsmobility  speed  ETV
vector 7542  IntersectionExampleScenario.node[4].veinsmobility  acceleration  ETV
vector 7543  IntersectionExampleScenario.node[4].veinsmobility  co2emission  ETV
vector 7546  IntersectionExampleScenario.node[5].veinsmobility  posx  ETV
vector 7547  IntersectionExampleScenario.node[5].veinsmobility  posy  ETV
vector 7548  IntersectionExampleScenario.node[5].veinsmobility  speed  ETV
vector 7549  IntersectionExampleScenario.node[5].veinsmobility  acceleration  ETV
vector 7550  IntersectionExampleScenario.node[5].veinsmobility  co2emission  ETV
vector 7553  IntersectionExampleScenario.node[6].veinsmobility  posx  ETV
vector 7554  IntersectionExampleScenario.node[6].veinsmobility  posy  ETV
vector 7555  IntersectionExampleScenario.node[6].veinsmobility  speed  ETV
vector 7556  IntersectionExampleScenario.node[6].veinsmobility  acceleration  ETV
vector 7557  IntersectionExampleScenario.node[6].veinsmobility  co2emission  ETV
vector 7560  IntersectionExampleScenario.node[7].veinsmobility  posx  ETV
vector 7561  IntersectionExampleScenario.node[7].veinsmobility  posy  ETV
vector 7562  IntersectionExampleScenario.node[7].veinsmobility  speed  ETV
vector 7563  IntersectionExampleScenario.node[7].veinsmobility  acceleration  ETV
vector 7564  IntersectionExampleScenario.node[7].veinsmobility  co2emission  ETV
vector 7567  IntersectionExampleScenario.node[8].veinsmobility  posx  ETV
vector 7568  IntersectionExampleScenario.node[8].veinsmobility  posy  ETV
vector 7569  IntersectionExampleScenario.node[8].veinsmobility  speed  ETV
vector 7570  IntersectionExampleScenario.node[8].veinsmobility  acceleration  ETV
vector 7571  IntersectionExampleScenario.node[8].veinsmobility  co2emission  ETV
vector 7574  IntersectionExampleScenario.node[9].veinsmobility  posx  ETV
vector 7575  IntersectionExampleScenario.node[9].veinsmobility  posy  ETV
vector 7581  IntersectionExampleScenario.node[10].veinsmobility  posx  ETV
vector 7582  IntersectionExampleScenario.node[10].veinsmobility  posy  ETV
vector 7576  IntersectionExampleScenario.node[9].veinsmobility  speed  ETV
vector 7583  IntersectionExampleScenario.node[10].veinsmobility  speed  ETV
vector 7577  IntersectionExampleScenario.node[9].veinsmobility  acceleration  ETV
vector 7578  IntersectionExampleScenario.node[9].veinsmobility  co2emission  ETV
vector 7584  IntersectionExampleScenario.node[10].veinsmobility  acceleration  ETV
vector 7585  IntersectionExampleScenario.node[10].veinsmobility  co2emission  ETV
vector 7588  IntersectionExampleScenario.node[11].veinsmobility  posx  ETV
vector 7589  IntersectionExampleScenario.node[11].veinsmobility  posy  ETV
vector 7590  IntersectionExampleScenario.node[11].veinsmobility  speed  ETV
vector 7591  IntersectionExampleScenario.node[11].veinsmobility  acceleration  ETV
vector 7592  IntersectionExampleScenario.node[11].veinsmobility  co2emission  ETV
7515	7628 4807 17 1709 3 42.75 160 0.973 11.648172402475 506.62173068736 2743.0137753722
7514	12435 4275 17 1709 3 42.75 160 -3.47731590271 2.5 38.341367721558 280.06653551157
7513	16710 4683 14 1709 2.75 42.75 161 5.6500000953674 15.64999961853 2188.2595562935 31102.263563451
7512	21393 5020 11 1709 2.5 42.75 162 486.85000610352 734.19282531738 87133.305480957 47801203.514396
7511	26413 5026 11 1709 2.5 42.75 162 486.81842041016 785.82187652588 92685.972343445 54775674.841421
7529	31439 4740 31 1709 3.5 42.75 158 0.973 11.810082123732 513.43619907667 2875.6901887968
7528	36179 4350 31 1709 3.5 42.75 158 -3.2696132659912 2.5 39.529638290405 284.0743005479
7527	40529 4614 24 1709 3.25 42.75 159 5.6500000953674 15.875 2188.440217495 31584.250523693
7526	45143 4963 17 1709 3 42.75 160 235.67498779297 483.14999389648 69186.786682129 30839536.155566
7525	50106 4953 17 1709 3 42.75 160 184.17810058594 483.14999389648 63625.506011963 27033165.130064
vector 7595  IntersectionExampleScenario.node[12].veinsmobility  posx  ETV
vector 7596  IntersectionExampleScenario.node[12].veinsmobility  posy  ETV
vector 7597  IntersectionExampleScenario.node[12].veinsmobility  speed  ETV
vector 7598  IntersectionExampleScenario.node[12].veinsmobility  acceleration  ETV
vector 7599  IntersectionExampleScenario.node[12].veinsmobility  co2emission  ETV
7522	55455 5497 31 2304 3.5 50.5 189 0.973 11.36141391502 546.11906206791 2757.7632427201
7521	60952 5045 31 2304 3.5 50.5 189 -8.2099418640137 4 36.813589096069 481.06962067089
7520	65997 5341 24 2304 3.25 50.5 190 0 15.25 2172.3059687614 29932.842901098
7519	71338 5956 17 2304 3 50.5 191 486.63604736328 785.82187652588 107381.67536163 62258103.053046
7518	77294 5899 17 2304 3 50.5 191 237.89813232422 483.14999389648 83971.288116455 37911351.063705
vector 7602  IntersectionExampleScenario.node[13].veinsmobility  posx  ETV
vector 7603  IntersectionExampleScenario.node[13].veinsmobility  posy  ETV
vector 7604  IntersectionExampleScenario.node[13].veinsmobility  speed  ETV
vector 7605  IntersectionExampleScenario.node[13].veinsmobility  acceleration  ETV
vector 7606  IntersectionExampleScenario.node[13].veinsmobility  co2emission  ETV
vector 7609  IntersectionExampleScenario.node[14].veinsmobility  posx  ETV
vector 7610  IntersectionExampleScenario.node[14].veinsmobility  posy  ETV
vector 7611  IntersectionExampleScenario.node[14].veinsmobility  speed  ETV
vector 7612  IntersectionExampleScenario.node[14].veinsmobility  acceleration  ETV
vector 7613  IntersectionExampleScenario.node[14].veinsmobility  co2emission  ETV
vector 7616  IntersectionExampleScenario.node[15].veinsmobility  posx  ETV
vector 7617  IntersectionExampleScenario.node[15].veinsmobility  posy  ETV
vector 7618  IntersectionExampleScenario.node[15].veinsmobility  speed  ETV
vector 7619  IntersectionExampleScenario.node[15].veinsmobility  acceleration  ETV
vector 7620  IntersectionExampleScenario.node[15].veinsmobility  co2emission  ETV
vector 7623  IntersectionExampleScenario.node[16].veinsmobility  posx  ETV
vector 7624  IntersectionExampleScenario.node[16].veinsmobility  posy  ETV
vector 7625  IntersectionExampleScenario.node[16].veinsmobility  speed  ETV
vector 7626  IntersectionExampleScenario.node[16].veinsmobility  acceleration  ETV
vector 7627  IntersectionExampleScenario.node[16].veinsmobility  co2emission  ETV
7543	84777 5568 494 3544 18.75 65.5 188 0.973 11.36141391502 545.53240770487 2758.8824210374
7542	90345 5121 494 3544 18.75 65.5 188 -6.771110534668 4 36.98334312439 450.59377556158
7541	95466 5431 483 3544 18.5 65.5 189 0 15.25 2175.7518162727 29985.055771734
7540	100897 6007 472 3544 18.25 65.5 190 184.17810058594 483.36395263672 77428.268157959 33434919.585123
7539	106904 5967 472 3544 18.25 65.5 190 486.85000610352 732.63011169434 100825.34951782 54500036.94775
7550	112871 5364 641 3620 22 66.5 179 0.973 11.54047740176 538.96274081235 2782.7044875231
7549	118235 5036 641 3620 22 66.5 179 -4.5 2.5 37.492597579956 367.5750383046
7548	123271 5576 628 3620 21.75 66.5 180 1.5399610996246 15.5 2261.8397403955 31363.40594025
7547	128847 5720 615 3620 21.5 66.5 181 172.9296875 733.79635620117 80600.352813721 40349159.619478
7546	134567 5758 615 3620 21.5 66.5 181 486.85000610352 486.85000610352 88119.851104736 42901150.048182
vector 7630  IntersectionExampleScenario.node[17].veinsmobility  posx  ETV
vector 7631  IntersectionExampleScenario.node[17].veinsmobility  posy  ETV
vector 7632  IntersectionExampleScenario.node[17].veinsmobility  speed  ETV
vector 7633  IntersectionExampleScenario.node[17].veinsmobility  acceleration  ETV
vector 7634  IntersectionExampleScenario.node[17].veinsmobility  co2emission  ETV
vector 7637  IntersectionExampleScenario.node[18].veinsmobility  posx  ETV
vector 7638  IntersectionExampleScenario.node[18].veinsmobility  posy  ETV
vector 7639  IntersectionExampleScenario.node[18].veinsmobility  speed  ETV
vector 7640  IntersectionExampleScenario.node[18].veinsmobility  acceleration  ETV
vector 7641  IntersectionExampleScenario.node[18].veinsmobility  co2emission  ETV
vector 7644  IntersectionExampleScenario.node[19].veinsmobility  posx  ETV
vector 7645  IntersectionExampleScenario.node[19].veinsmobility  posy  ETV
vector 7646  IntersectionExampleScenario.node[19].veinsmobility  speed  ETV
vector 7647  IntersectionExampleScenario.node[19].veinsmobility  acceleration  ETV
vector 7648  IntersectionExampleScenario.node[19].veinsmobility  co2emission  ETV
vector 7651  IntersectionExampleScenario.node[20].veinsmobility  posx  ETV
vector 7652  IntersectionExampleScenario.node[20].veinsmobility  posy  ETV
vector 7653  IntersectionExampleScenario.node[20].veinsmobility  speed  ETV
vector 7654  IntersectionExampleScenario.node[20].veinsmobility  acceleration  ETV
vector 7655  IntersectionExampleScenario.node[20].veinsmobility  co2emission  ETV
vector 7658  IntersectionExampleScenario.node[21].veinsmobility  posx  ETV
vector 7659  IntersectionExampleScenario.node[21].veinsmobility  posy  ETV
vector 7660  IntersectionExampleScenario.node[21].veinsmobility  speed  ETV
vector 7661  IntersectionExampleScenario.node[21].veinsmobility  acceleration  ETV
vector 7662  IntersectionExampleScenario.node[21].veinsmobility  co2emission  ETV
vector 7665  IntersectionExampleScenario.node[22].veinsmobility  posx  ETV
vector 7666  IntersectionExampleScenario.node[22].veinsmobility  posy  ETV
7571	142457 5110 1316 4608 36.5 78.5 169 0.973 12.26218747632 564.07186619388 3299.9329808007
7570	147567 4896 1316 4608 36.5 78.5 169 -9.2126970291138 4 41.396924972534 526.89546991397
7569	152463 4994 1303 4608 36.25 78.5 170 0 16.5 2173.058075428 31776.320508217
7568	157457 5390 1290 4608 36 78.5 171 238.51751708984 483.14999389648 74907.678405762 33718034.709765
7567	162847 5440 1290 4608 36 78.5 171 184.17810058594 483.36395263672 68976.980194092 29595992.788024
vector 7667  IntersectionExampleScenario.node[22].veinsmobility  speed  ETV
vector 7668  IntersectionExampleScenario.node[22].veinsmobility  acceleration  ETV
vector 7669  IntersectionExampleScenario.node[22].veinsmobility  co2emission  ETV
7536	168531 7043 364 4689 15.25 79.25 257 0.973 11.648172402475 621.77155260614 2957.5297928475
7535	175574 6427 364 4689 15.25 79.25 257 -8.4908542633057 4 38.001859664917 488.16021245119
7534	182001 6613 355 4689 15 79.25 258 0 15.64999961853 2172.5753586292 30408.735714519
7533	188614 8163 346 4689 14.75 79.25 259 486.85000610352 732.01240539551 134249.98083496 70659094.298783
7532	196777 8220 346 4689 14.75 79.25 259 486.63604736328 785.82187652588 141113.10926056 78959435.639769
7585	204997 5166 1506 4952 40 82 169 0.973 11.200708441096 520.89355093783 2767.9149510517
7584	210163 5049 1506 4952 40 82 169 -3.9551696777344 2.5 36.643835067749 285.21461185982
7583	215212 5416 1489 4952 39.75 82 170 5.6500000953674 15.02499961853 2254.0685920715 30894.89240109
7582	220628 5458 1472 4952 39.5 82 171 483.14999389648 735.17163085938 91420.755371094 49897629.895504
7581	226086 5449 1472 4952 39.5 82 171 174.53436279297 486.85000610352 67804.049957275 28860638.638442
vector 7672  IntersectionExampleScenario.node[23].veinsmobility  posx  ETV
vector 7673  IntersectionExampleScenario.node[23].veinsmobility  posy  ETV
7564	231687 6103 1049 5104 31 83.75 212 0.973 11.648172402475 593.35746530341 3007.3117774392
7563	237790 6270 1049 5104 31 83.75 212 -22.042388916016 4 39.699392318726 874.44604541204
7562	244060 6573 1036 5104 30.75 83.75 213 0 15.64999961853 2178.7033964694 29109.22904525
7561	250633 6840 1023 5104 30.5 83.75 214 486.85000610352 733.9423828125 112261.23300171 59910396.50465
7560	257473 6837 1023 5104 30.5 83.75 214 486.58001708984 785.82187652588 119451.20511627 68550327.143589
vector 7674  IntersectionExampleScenario.node[23].veinsmobility  speed  ETV
vector 7675  IntersectionExampleScenario.node[23].veinsmobility  acceleration  ETV
vector 7676  IntersectionExampleScenario.node[23].veinsmobility  co2emission  ETV
vector 7679  IntersectionExampleScenario.node[24].veinsmobility  posx  ETV
vector 7680  IntersectionExampleScenario.node[24].veinsmobility  posy  ETV
vector 7681  IntersectionExampleScenario.node[24].veinsmobility  speed  ETV
vector 7682  IntersectionExampleScenario.node[24].veinsmobility  acceleration  ETV
vector 7683  IntersectionExampleScenario.node[24].veinsmobility  co2emission  ETV
vector 7686  IntersectionExampleScenario.node[25].veinsmobility  posx  ETV
vector 7687  IntersectionExampleScenario.node[25].veinsmobility  posy  ETV
7599	265102 4778 2131 5342 48.25 86.25 153 0.97223939240464 11.648172402475 478.31718321547 2570.370625655
7598	269880 4536 2131 5342 48.25 86.25 153 -3.7481918334961 2.5 38.680875778198 206.08834229593
7597	274416 4696 2110 5342 48 86.25 154 5.6500000953674 15.64999961853 2209.8582115173 32363.994256839
7596	279112 4960 2089 5342 47.75 86.25 155 486.85000610352 486.85000610352 75461.750946045 36738553.908664
7595	284072 4954 2089 5342 47.75 86.25 155 238.54858398438 785.82187652588 80973.42224884 46386895.884992
vector 7688  IntersectionExampleScenario.node[25].veinsmobility  speed  ETV
vector 7689  IntersectionExampleScenario.node[25].veinsmobility  acceleration  ETV
vector 7690  IntersectionExampleScenario.node[25].veinsmobility  co2emission  ETV
vector 7693  IntersectionExampleScenario.node[26].veinsmobility  posx  ETV
vector 7694  IntersectionExampleScenario.node[26].veinsmobility  posy  ETV
vector 7695  IntersectionExampleScenario.node[26].veinsmobility  speed  ETV
vector 7696  IntersectionExampleScenario.node[26].veinsmobility  acceleration  ETV
vector 7697  IntersectionExampleScenario.node[26].veinsmobility  co2emission  ETV
vector 7700  IntersectionExampleScenario.node[27].veinsmobility  posx  ETV
vector 7701  IntersectionExampleScenario.node[27].veinsmobility  posy  ETV
vector 7702  IntersectionExampleScenario.node[27].veinsmobility  speed  ETV
vector 7703  IntersectionExampleScenario.node[27].veinsmobility  acceleration  ETV
vector 7704  IntersectionExampleScenario.node[27].veinsmobility  co2emission  ETV
7557	290062 7346 1001 6348 30 96 265 0.973 11.200708441096 612.87849050749 2740.2988806801
7556	297408 6569 1001 6348 30 96 265 -7.2424693107605 4 35.455564498901 453.51298811648
7555	303977 6974 990 6348 29.75 96 266 0 15.02499961853 2213.7840818167 30144.579357717
7554	310951 8527 979 6348 29.5 96 267 235.85095214844 785.82187652588 136581.72524261 74202489.725162
7553	319478 8541 979 6348 29.5 96 267 483.14999389648 483.14999389648 129001.04837036 62326855.73278
7578	328019 6648 1506 6423 40 96.75 228 0.973 11.450879080643 578.94276208125 2789.3340855894
7577	334667 6876 1506 6423 40 96.75 228 -3.713475227356 2.5000000596046 37.32285118103 334.01663561826
7576	341543 7100 1489 6423 39.75 96.75 229 0 15.375 2201.7339642867 28847.568628358
7575	348643 7343 1472 6423 39.5 96.75 230 482.95138549805 785.82187652588 127564.50066376 72717883.462878
7574	355986 7353 1472 6423 39.5 96.75 230 483.14999389648 732.11299133301 119591.43911743 63277032.109857
7620	363339 4961 2838 6573 57.5 98.25 164 0.973 11.648172402475 521.87128154869 2893.4109539756
7619	368300 4690 2838 6573 57.5 98.25 164 -3.7934646606445 2.5 38.511121749878 268.22748598891
7618	372990 5046 2815 6573 57.25 98.25 165 5.6500000953674 15.64999961853 2208.1336669922 30669.811827639
7617	378036 5295 2792 6573 57 98.25 166 238.87005615234 785.82187652588 87016.441688538 49712819.402214
7616	383331 5311 2792 6573 57 98.25 166 483.14999389648 483.14999389648 80202.898986816 38750030.155961
vector 7707  IntersectionExampleScenario.node[28].veinsmobility  posx  ETV
vector 7708  IntersectionExampleScenario.node[28].veinsmobility  posy  ETV
vector 7709  IntersectionExampleScenario.node[28].veinsmobility  speed  ETV
vector 7710  IntersectionExampleScenario.node[28].veinsmobility  acceleration  ETV
vector 7711  IntersectionExampleScenario.node[28].veinsmobility  co2emission  ETV
7627	389038 5038 3400 7135 63.75 104.5 164 0.973 11.36141391502 500.85956217665 2767.3854146785
7626	394076 4901 3400 7135 63.75 104.5 164 -3.8650722503662 2.5 35.964826583862 287.63646305987
7625	398977 4975 3379 7135 63.5 104.5 165 5.6500000953674 15.25 2184.6643795967 30077.144089035
7624	403952 5323 3358 7135 63.25 104.5 166 486.84768676758 785.82187652588 95002.833045959 56147978.499723
7623	409275 5328 3358 7135 63.25 104.5 166 236.34985351562 483.14999389648 71675.604064941 31910777.611552
vector 7714  IntersectionExampleScenario.node[29].veinsmobility  posx  ETV
vector 7715  IntersectionExampleScenario.node[29].veinsmobility  posy  ETV
vector 7716  IntersectionExampleScenario.node[29].veinsmobility  speed  ETV
vector 7717  IntersectionExampleScenario.node[29].veinsmobility  acceleration  ETV
vector 7718  IntersectionExampleScenario.node[29].veinsmobility  co2emission  ETV
7592	414999 7656 1595 7621 41.25 110.5 278 0.973 11.36141391502 635.86755051045 2853.6732146555
7591	422655 6768 1595 7621 41.25 110.5 278 -6.9535226821899 4 37.15309715271 472.05921747317
7590	429423 7128 1576 7621 41 110.5 279 0 15.25 2177.6388907433 30158.636424291
7589	436551 8983 1557 7621 40.75 110.5 280 184.17810058594 483.36395263672 119906.224823 53479905.929142
7588	445534 8941 1557 7621 40.75 110.5 280 486.85000610352 733.15849304199 144655.34017944 75850221.091688
vector 7721  IntersectionExampleScenario.node[30].veinsmobility  posx  ETV
vector 7722  IntersectionExampleScenario.node[30].veinsmobility  posy  ETV
7606	454627 6882 2529 7747 53.75 112.25 235 0.96333723109819 12.099024792222 608.40920305147 3072.6739669482
7605	461509 7245 2529 7747 53.75 112.25 235 -3.9830539226532 2.5000009536743 40.208654403687 338.70313673143
7604	468754 7342 2510 7747 53.5 112.25 236 0 16.27499961853 2191.4663275294 29494.591459955
7603	476096 7602 2491 7747 53.25 112.25 237 184.17810058594 483.14999389648 98817.236236572 43119052.188278
7602	483698 7623 2491 7747 53.25 112.25 237 486.85000610352 734.70796203613 123444.943573 65350241.669657
vector 7723  IntersectionExampleScenario.node[30].veinsmobility  speed  ETV
vector 7724  IntersectionExampleScenario.node[30].veinsmobility  acceleration  ETV
vector 7725  IntersectionExampleScenario.node[30].veinsmobility  co2emission  ETV
7613	491565 6933 2666 7918 55.5 114.5 237 0.973 12.099024792222 631.62795571406 3245.2765834588
7612	498498 7176 2666 7918 55.5 114.5 237 -4.5 2.5 41.057416915894 444.57457542469
7611	505674 7327 2645 7918 55.25 114.5 238 0 16.27499961853 2270.8430235237 30410.365972224
7610	513001 7671 2624 7918 55 114.5 239 164.94219970703 483.22613525391 97326.782073975 41812214.583085
7609	520672 7698 2624 7918 55 114.5 239 486.85000610352 735.10697937012 124349.26130676 65745888.334651
7634	528370 5488 3869 8032 70 116 185 0.973 11.648172402475 541.81830918225 2894.416344147
7633	533858 5493 3869 8032 70 116 185 -3.3901977539062 2.5 38.511121749878 297.15197258445
7632	539351 5785 3850 8032 69.75 116 186 3.8474776744843 15.64999961853 2225.5938472748 29569.878358526
7631	545136 6005 3831 8032 69.5 116 187 184.17810058594 735.12471008301 83458.381378174 41445798.977728
7630	551141 6048 3831 8032 69.5 116 187 486.85000610352 486.85000610352 91040.951141357 44323287.61884
vector 7728  IntersectionExampleScenario.node[31].veinsmobility  posx  ETV
vector 7729  IntersectionExampleScenario.node[31].veinsmobility  posy  ETV
7641	557341 5916 3929 8222 70.75 118.5 192 0.973 11.48515171349 551.6702530274 2716.5291600652
7640	563257 5748 3929 8222 70.75 118.5 192 -4.5 2.5 36.98334312439 351.94037550897
7639	569005 6050 3909 8222 70.5 118.5 193 3.7049922943115 15.422836303711 2319.4492621422 30385.852797566
7638	575055 6258 3888 8222 70.25 118.5 194 161.1796875 735.43887329102 84587.589981079 41738746.702045
7637	581313 6284 3888 8222 70.25 118.5 194 486.85000610352 486.85000610352 94448.901184082 45982448.117941
vector 7730  IntersectionExampleScenario.node[31].veinsmobility  speed  ETV
vector 7731  IntersectionExampleScenario.node[31].veinsmobility  acceleration  ETV
vector 7732  IntersectionExampleScenario.node[31].veinsmobility  co2emission  ETV
7655	587841 5605 4276 8496 75 121.75 188 0.973 11.36141391502 541.16283089245 2879.0171413371
7654	593446 5648 4276 8496 75 121.75 188 -4.5 2.5 35.964826583862 334.4084378833
7653	599094 5806 4253 8496 74.75 121.75 189 5.4886989593506 15.25 2256.8449788094 29030.702740829
7652	604900 6159 4230 8496 74.5 121.75 190 167.09973144531 483.14999389648 74946.684417725 31641502.431804
7651	611059 6157 4230 8496 74.5 121.75 190 486.85000610352 734.18663024902 101068.48243713 54785862.149749
vector 7735  IntersectionExampleScenario.node[32].veinsmobility  posx  ETV
vector 7736  IntersectionExampleScenario.node[32].veinsmobility  posy  ETV
vector 7737  IntersectionExampleScenario.node[32].veinsmobility  speed  ETV
vector 7742  IntersectionExampleScenario.node[33].veinsmobility  posx  ETV
vector 7743  IntersectionExampleScenario.node[33].veinsmobility  posy  ETV
vector 7738  IntersectionExampleScenario.node[32].veinsmobility  acceleration  ETV
vector 7739  IntersectionExampleScenario.node[32].veinsmobility  co2emission  ETV
7662	617764 5571 4533 8689 77.75 124 186 0.973 12.099024792222 573.47992154727 3193.141938716
7661	623335 5290 4533 8689 77.75 124 186 -7.8776445388794 4 40.038900375366 509.53881719338
7660	628625 5468 4508 8689 77.5 124 187 0 16.27499961853 2208.051772356 31990.484749026
7659	634093 6105 4483 8689 77.25 124 188 235.31896972656 486.85000610352 83242.778320312 37881108.998339
7658	640198 6096 4483 8689 77.25 124 188 483.14999389648 785.82187652588 105222.94022369 60782197.997163
vector 7744  IntersectionExampleScenario.node[33].veinsmobility  speed  ETV
vector 7745  IntersectionExampleScenario.node[33].veinsmobility  acceleration  ETV
vector 7746  IntersectionExampleScenario.node[33].veinsmobility  co2emission  ETV
7690	646538 5116 5396 9034 86.75 128 166 0.973 11.810082123732 561.66595254003 3406.2534331027
7689	651654 4938 5396 9034 86.75 128 166 -3.5744075775146 2.5 38.850629806519 368.91036775094
7688	656592 5132 5369 9034 86.5 128 167 5.6500000953674 15.875 2192.1967558861 30306.635295919
7687	661724 5481 5342 9034 86.25 128 168 486.85000610352 735.25184631348 90041.442855835 49216230.546145
7686	667205 5477 5342 9034 86.25 128 168 486.85000610352 785.82187652588 96008.879615784 56610920.829787
vector 7749  IntersectionExampleScenario.node[34].veinsmobility  posx  ETV
vector 7750  IntersectionExampleScenario.node[34].veinsmobility  posy  ETV
vector 7751  IntersectionExampleScenario.node[34].veinsmobility  speed  ETV
vector 7752  IntersectionExampleScenario.node[34].veinsmobility  acceleration  ETV
vector 7753  IntersectionExampleScenario.node[34].veinsmobility  co2emission  ETV
vector 7756  IntersectionExampleScenario.node[35].veinsmobility  posx  ETV
vector 7757  IntersectionExampleScenario.node[35].veinsmobility  posy  ETV
vector 7758  IntersectionExampleScenario.node[35].veinsmobility  speed  ETV
vector 7759  IntersectionExampleScenario.node[35].veinsmobility  acceleration  ETV
vector 7760  IntersectionExampleScenario.node[35].veinsmobility  co2emission  ETV
vector 7763  IntersectionExampleScenario.node[36].veinsmobility  posx  ETV
vector 7764  IntersectionExampleScenario.node[36].veinsmobility  posy  ETV
vector 7765  IntersectionExampleScenario.node[36].veinsmobility  speed  ETV
vector 7766  IntersectionExampleScenario.node[36].veinsmobility  acceleration  ETV
vector 7767  IntersectionExampleScenario.node[36].veinsmobility  co2emission  ETV
vector 7770  IntersectionExampleScenario.node[37].veinsmobility  posx  ETV
vector 7771  IntersectionExampleScenario.node[37].veinsmobility  posy  ETV
vector 7772  IntersectionExampleScenario.node[37].veinsmobility  speed  ETV
vector 7773  IntersectionExampleScenario.node[37].veinsmobility  acceleration  ETV
vector 7774  IntersectionExampleScenario.node[37].veinsmobility  co2emission  ETV
vector 7777  IntersectionExampleScenario.node[38].veinsmobility  posx  ETV
vector 7778  IntersectionExampleScenario.node[38].veinsmobility  posy  ETV
vector 7779  IntersectionExampleScenario.node[38].veinsmobility  speed  ETV
vector 7780  IntersectionExampleScenario.node[38].veinsmobility  acceleration  ETV
vector 7781  IntersectionExampleScenario.node[38].veinsmobility  co2emission  ETV
vector 7784  IntersectionExampleScenario.node[39].veinsmobility  posx  ETV
vector 7785  IntersectionExampleScenario.node[39].veinsmobility  posy  ETV
vector 7786  IntersectionExampleScenario.node[39].veinsmobility  speed  ETV
vector 7787  IntersectionExampleScenario.node[39].veinsmobility  acceleration  ETV
vector 7788  IntersectionExampleScenario.node[39].veinsmobility  co2emission  ETV
7648	675058 7591 4104 10034 73 140.5 271 0.973 11.450879080643 628.69608734256 2860.3607216243
7647	682649 6839 4104 10034 73 140.5 271 -6.7711477279663 4 36.98334312439 452.58212473492
7646	689488 7164 4083 10034 72.75 140.5 272 0 15.375 2197.6686828136 30446.01081592
7645	696652 8893 4062 10034 72.5 140.5 273 483.14999389648 785.82187652588 147986.11310577 82367251.405
7644	705545 8893 4062 10034 72.5 140.5 273 483.14999389648 732.12057495117 140411.83734131 73365756.105493
7669	714438 7592 4662 10103 79 141.25 250 0.973 11.54047740176 613.59909568139 2868.9768775961
7668	722030 7794 4662 10103 79 141.25 250 -3.8571276664734 2.5000009536743 38.341367721558 356.98198656897
7667	729824 8014 4635 10103 78.75 141.25 251 0 15.5 2212.1676725708 30223.461238218
7666	737838 8204 4608 10103 78.5 141.25 252 237.50390625 785.82187652588 130216.93512726 71433364.928018
7665	746042 8235 4608 10103 78.5 141.25 252 483.14999389648 483.14999389648 121753.79846191 58825346.983747
7676	754277 7045 5150 10264 84.25 143 236 0.973 11.648172402475 609.98799898548 2982.9594432322
7675	761322 7301 5150 10264 84.25 143 236 -3.8545594215393 2.5 40.038900375366 351.07715313202
7674	768623 7607 5127 10264 84 143 237 0 15.72243309021 2220.1932563465 29641.744299752
7673	776230 7775 5104 10264 83.75 143 238 235.69219970703 785.82187652588 124242.71976471 68976059.276741
7672	784005 7800 5104 10264 83.75 143 238 483.14999389648 483.14999389648 114989.69854736 55557272.151317
7697	791805 6258 5905 10448 91.75 145 214 0.973 11.648172402475 583.9149501947 3023.9754641284
7696	798063 6596 5905 10448 91.75 145 214 -3.7993607521057 2.5 41.736440658569 360.35122808422
7695	804659 6737 5878 10448 91.5 145 215 0 16.149454116821 2211.1403048038 29215.801290731
7694	811396 7103 5851 10448 91.25 145 216 483.12283325195 785.82187652588 121451.88780975 70121579.694185
7693	818499 7105 5851 10448 91.25 145 216 483.14999389648 733.80340576172 112402.82398987 59532747.249597
vector 7791  IntersectionExampleScenario.node[40].veinsmobility  posx  ETV
vector 7792  IntersectionExampleScenario.node[40].veinsmobility  posy  ETV
vector 7798  IntersectionExampleScenario.node[41].veinsmobility  posx  ETV
vector 7799  IntersectionExampleScenario.node[41].veinsmobility  posy  ETV
vector 7793  IntersectionExampleScenario.node[40].veinsmobility  speed  ETV
vector 7794  IntersectionExampleScenario.node[40].veinsmobility  acceleration  ETV
vector 7795  IntersectionExampleScenario.node[40].veinsmobility  co2emission  ETV
vector 7800  IntersectionExampleScenario.node[41].veinsmobility  speed  ETV
vector 7801  IntersectionExampleScenario.node[41].veinsmobility  acceleration  ETV
vector 7802  IntersectionExampleScenario.node[41].veinsmobility  co2emission  ETV
vector 7805  IntersectionExampleScenario.node[42].veinsmobility  posx  ETV
vector 7806  IntersectionExampleScenario.node[42].veinsmobility  posy  ETV
vector 7807  IntersectionExampleScenario.node[42].veinsmobility  speed  ETV
vector 7808  IntersectionExampleScenario.node[42].veinsmobility  acceleration  ETV
vector 7809  IntersectionExampleScenario.node[42].veinsmobility  co2emission  ETV
vector 7812  IntersectionExampleScenario.node[43].veinsmobility  posx  ETV
vector 7813  IntersectionExampleScenario.node[43].veinsmobility  posy  ETV
vector 7814  IntersectionExampleScenario.node[43].veinsmobility  speed  ETV
vector 7815  IntersectionExampleScenario.node[43].veinsmobility  acceleration  ETV
vector 7816  IntersectionExampleScenario.node[43].veinsmobility  co2emission  ETV
7725	827188 5241 7785 11316 112.75 153 162 0.973 11.36141391502 499.76475159281 2612.1448211704
7724	832429 4702 7785 11316 112.75 153 162 -3.3004913330078 2.5 37.32285118103 266.94425848761
7723	837131 5112 7766 11316 112.5 153 163 5.6500000953674 15.25 2189.0501613617 30666.988199943
7722	842243 5459 7747 11316 112.25 153 164 486.85000610352 785.82187652588 93829.984306335 55446306.46161
7721	847702 5428 7747 11316 112.25 153 164 235.38958740234 483.14999389648 70818.982269287 31535434.191391
7683	853130 7694 5292 11529 85.75 155 278 0.973 12.099024792222 680.94652815148 3586.686072389
7682	860824 6986 5292 11529 85.75 155 278 -21.836498260498 4 40.038900375366 942.87980644379
7681	867810 7276 5267 11529 85.5 155 279 0 16.27499961853 2207.2328300476 32014.70965746
7680	875086 9213 5242 11529 85.25 155 280 184.17810058594 486.85000610352 120433.98690796 53930056.965027
7679	884299 9238 5242 11529 85.25 155 280 235.65051269531 486.85000610352 128049.8046875 59698429.627188
7704	893537 7338 6348 11654 96 156.25 242 0.973 12.099024792222 617.18666893259 3185.0675740408
7703	900875 7700 6348 11654 96 156.25 242 -3.9056370258331 2.5000002384186 40.378400802612 358.46821996628
7702	908575 7759 6322 11654 95.75 156.25 243 0 16.27499961853 2180.0995279718 29413.325992037
7701	916334 8064 6295 11654 95.5 156.25 244 184.17810058594 483.14999389648 102070.37701416 44628332.602844
7700	924398 8085 6295 11654 95.5 156.25 244 486.85000610352 731.87048339844 126647.15779114 66760744.131541
vector 7819  IntersectionExampleScenario.node[44].veinsmobility  posx  ETV
vector 7820  IntersectionExampleScenario.node[44].veinsmobility  posy  ETV
vector 7821  IntersectionExampleScenario.node[44].veinsmobility  speed  ETV
vector 7822  IntersectionExampleScenario.node[44].veinsmobility  acceleration  ETV
vector 7823  IntersectionExampleScenario.node[44].veinsmobility  co2emission  ETV
7739	932879 5145 8689 12295 124 163.25 158 0.973 11.810082123732 513.07618697094 2873.5446257182
7738	938024 4812 8689 12295 124 163.25 158 -3.5405101776123 2.5 39.359884262085 292.23851881406
7737	942836 5012 8666 12295 123.75 163.25 159 5.6500000953674 15.875 2187.2482848167 31534.332556375
7736	947848 5346 8643 12295 123.5 163.25 160 184.17810058594 483.14999389648 63613.066192627 27024271.710847
7735	953194 5366 8643 12295 123.5 163.25 160 486.85000610352 733.92192077637 86008.261077881 47153399.205211
vector 7826  IntersectionExampleScenario.node[45].veinsmobility  posx  ETV
vector 7827  IntersectionExampleScenario.node[45].veinsmobility  posy  ETV
vector 7833  IntersectionExampleScenario.node[46].veinsmobility  posx  ETV
vector 7834  IntersectionExampleScenario.node[46].veinsmobility  posy  ETV
vector 7828  IntersectionExampleScenario.node[45].veinsmobility  speed  ETV
vector 7829  IntersectionExampleScenario.node[45].veinsmobility  acceleration  ETV
vector 7830  IntersectionExampleScenario.node[45].veinsmobility  co2emission  ETV
vector 7835  IntersectionExampleScenario.node[46].veinsmobility  speed  ETV
vector 7836  IntersectionExampleScenario.node[46].veinsmobility  acceleration  ETV
vector 7837  IntersectionExampleScenario.node[46].veinsmobility  co2emission  ETV
7711	959352 8117 6739 12864 100 170 281 0.973 11.200708441096 629.02410563807 2724.6102671736
7710	967469 7037 6739 12864 100 170 281 -24.963600158691 4 35.455564498901 992.37723196534
7709	974506 7535 6714 12864 99.75 170 282 0 15.02499961853 2180.626619339 29755.305499377
7708	982041 9390 6689 12864 99.5 170 283 486.85000610352 734.4461517334 146437.69978333 76935593.688783
7707	991431 9446 6689 12864 99.5 170 283 486.63604736328 785.82187652588 153351.99886322 85255462.239164
7732	1000877 6422 8264 12968 119 171.25 210 0.973 11.820178661505 605.31961105864 3030.9868001826
7731	1007299 6246 8264 12968 119 171.25 210 -6.9388580322266 4 40.684316635132 486.19793818651
7730	1013545 6529 8243 12968 118.75 171.25 211 0 15.889010429382 2192.1960252225 30863.291204542
7729	1020074 7111 8222 12968 118.5 171.25 212 483.14999389648 734.28483581543 111139.67909241 59367192.964958
7728	1027185 7093 8222 12968 118.5 171.25 212 184.17810058594 486.85000610352 88439.17791748 38874231.828072
7718	1034278 8392 7197 13120 105.25 173.25 273 0.973 11.36141391502 671.56415728467 3043.5896214972
7717	1042670 8532 7197 13120 105.25 173.25 273 -20.558763504028 4 40.208654403687 904.89369241557
7716	1051202 8470 7176 13120 105 173.25 274 0 15.741128921509 2182.7648500837 30506.828194487
7715	1059672 9199 7155 13120 104.75 173.25 275 486.85000610352 733.60905456543 141874.28630066 74270416.98194
7714	1068871 9181 7155 13120 104.75 173.25 275 486.75073242188 785.82187652588 149767.50708771 83593942.570566
7767	1078052 5233 9779 13382 137.75 177.25 159 0.973 11.450879080643 489.30163520482 2595.8692535478
7766	1083285 4952 9779 13382 137.75 177.25 159 -3.4310989379883 2.5 37.15309715271 235.47713598283
7765	1088237 5143 9758 13382 137.5 177.25 160 5.6500000953674 15.375 2202.244348526 31145.911678055
7764	1093380 5449 9737 13382 137.25 177.25 161 238.05920410156 486.85000610352 69902.749420166 31310241.334001
7763	1098829 5456 9737 13382 137.25 177.25 161 483.12966918945 785.82187652588 92107.427146912 54484892.699901
vector 7840  IntersectionExampleScenario.node[47].veinsmobility  posx  ETV
vector 7841  IntersectionExampleScenario.node[47].veinsmobility  posy  ETV
vector 7842  IntersectionExampleScenario.node[47].veinsmobility  speed  ETV
vector 7843  IntersectionExampleScenario.node[47].veinsmobility  acceleration  ETV
vector 7844  IntersectionExampleScenario.node[47].veinsmobility  co2emission  ETV
7781	1104681 5386 9939 13575 139.5 180.25 164 0.973 11.36141391502 493.09962632924 2581.4212800182
7780	1110067 4998 9939 13575 139.5 180.25 164 -3.5891742706299 2.5 35.964826583862 268.88141109557
7779	1115065 5283 9915 13575 139.25 180.25 165 5.6500000953674 15.25 2185.01689291 30091.63973049
7778	1120348 5630 9890 13575 139 180.25 166 236.29425048828 483.14999389648 71671.362426758 31907627.636644
7777	1125978 5604 9890 13575 139 180.25 166 184.17810058594 483.21524047852 66034.037597656 28045524.293916
7788	1131582 5389 10011 13660 140.25 181.5 166 0.973 11.200708441096 507.11779216488 2552.5526431612
7787	1136971 5377 10011 13660 140.25 181.5 166 -3.1062698364258 2.5 38.370374679565 234.51715106764
7786	1142348 5652 9987 13660 140 181.5 167 5.6500000953674 15.310690879822 2262.8805265427 31983.885990656
7785	1148000 5705 9962 13660 139.75 181.5 168 238.74633789062 486.85000610352 73409.938659668 33033735.953448
7784	1153705 5700 9962 13660 139.75 181.5 168 483.09332275391 801.41563415527 96747.908927917 57770922.289394
vector 7847  IntersectionExampleScenario.node[48].veinsmobility  posx  ETV
vector 7848  IntersectionExampleScenario.node[48].veinsmobility  posy  ETV
vector 7854  IntersectionExampleScenario.node[49].veinsmobility  posx  ETV
vector 7855  IntersectionExampleScenario.node[49].veinsmobility  posy  ETV
vector 7849  IntersectionExampleScenario.node[48].veinsmobility  speed  ETV
vector 7850  IntersectionExampleScenario.node[48].veinsmobility  acceleration  ETV
vector 7851  IntersectionExampleScenario.node[48].veinsmobility  co2emission  ETV
vector 7856  IntersectionExampleScenario.node[49].veinsmobility  speed  ETV
vector 7861  IntersectionExampleScenario.node[50].veinsmobility  posx  ETV
vector 7862  IntersectionExampleScenario.node[50].veinsmobility  posy  ETV
vector 7857  IntersectionExampleScenario.node[49].veinsmobility  acceleration  ETV
vector 7858  IntersectionExampleScenario.node[49].veinsmobility  co2emission  ETV
vector 7863  IntersectionExampleScenario.node[50].veinsmobility  speed  ETV
vector 7864  IntersectionExampleScenario.node[50].veinsmobility  acceleration  ETV
vector 7865  IntersectionExampleScenario.node[50].veinsmobility  co2emission  ETV
7746	1160593 7342 8738 13966 124.5 185.75 246 0.973 11.200708441096 593.34345879132 2688.6050758201
7745	1167935 6529 8738 13966 124.5 185.75 246 -8.6476802825928 4 35.795072555542 472.97505521195
7744	1174464 6978 8714 13966 124.25 185.75 247 0 15.02499961853 2171.2141442299 29466.991903709
7743	1181442 8360 8689 13966 124 185.75 248 486.63604736328 785.82187652588 135908.9749527 76555796.237188
7742	1189802 8303 8689 13966 124 185.75 248 238.08221435547 483.14999389648 111380.43795776 51111340.614998
7753	1198105 7202 9236 14161 130.75 188.25 231 0.973 11.200708441096 570.97287555558 2650.25113536
7752	1205307 7706 9236 14161 130.75 188.25 231 -3.7215631008148 2.5 36.134572982788 314.06904132049
7751	1213013 7609 9217 14161 130.5 188.25 232 0 15.02499961853 2188.1770056728 28385.464612275
7750	1220622 7849 9198 14161 130.25 188.25 233 486.85000610352 785.82187652588 129232.14225006 73639497.411127
7749	1228471 7869 9198 14161 130.25 188.25 233 235.65893554688 483.14999389648 104014.5760498 47528034.438599
vector 7868  IntersectionExampleScenario.node[51].veinsmobility  posx  ETV
vector 7869  IntersectionExampleScenario.node[51].veinsmobility  posy  ETV
vector 7870  IntersectionExampleScenario.node[51].veinsmobility  speed  ETV
vector 7871  IntersectionExampleScenario.node[51].veinsmobility  acceleration  ETV
vector 7872  IntersectionExampleScenario.node[51].veinsmobility  co2emission  ETV
7760	1236736 6614 9620 14264 135.75 189.5 216 0.973 11.54047740176 565.91190165173 2793.8045480715
7759	1243350 6946 9620 14264 135.75 189.5 216 -3.8235290050507 2.5000019073486 37.15309715271 364.29627096555
7758	1250296 7123 9599 14264 135.5 189.5 217 0 15.5 2210.4260133058 28478.58213336
7757	1257419 7378 9578 14264 135.25 189.5 218 237.86901855469 785.82187652588 114069.93265533 63891209.768854
7756	1264797 7393 9578 14264 135.25 189.5 218 483.14999389648 483.14999389648 105326.69866943 50888593.819274
vector 7875  IntersectionExampleScenario.node[52].veinsmobility  posx  ETV
vector 7876  IntersectionExampleScenario.node[52].veinsmobility  posy  ETV
vector 7877  IntersectionExampleScenario.node[52].veinsmobility  speed  ETV
vector 7882  IntersectionExampleScenario.node[53].veinsmobility  posx  ETV
vector 7883  IntersectionExampleScenario.node[53].veinsmobility  posy  ETV
vector 7878  IntersectionExampleScenario.node[52].veinsmobility  acceleration  ETV
vector 7879  IntersectionExampleScenario.node[52].veinsmobility  co2emission  ETV
vector 7884  IntersectionExampleScenario.node[53].veinsmobility  speed  ETV
vector 7885  IntersectionExampleScenario.node[53].veinsmobility  acceleration  ETV
vector 7886  IntersectionExampleScenario.node[53].veinsmobility  co2emission  ETV
7774	1272982 6724 9867 14507 138.75 192.25 215 0.973 11.36141391502 595.21105070336 2944.806051845
7773	1279706 6558 9867 14507 138.75 192.25 215 -4.5 2.5000019073486 38.680875778198 431.31925829507
7772	1286264 7018 9844 14507 138.5 192.25 216 1.7224781513214 15.384376525879 2229.8309921026 28779.609955228
7771	1293282 7343 9821 14507 138.25 192.25 217 486.70318603516 798.59687805176 123238.53106689 72006670.276329
7770	1300625 7360 9821 14507 138.25 192.25 217 238.4306640625 483.14999389648 96791.193817139 44182038.127884
vector 7889  IntersectionExampleScenario.node[54].veinsmobility  posx  ETV
vector 7890  IntersectionExampleScenario.node[54].veinsmobility  posy  ETV
vector 7891  IntersectionExampleScenario.node[54].veinsmobility  speed  ETV
vector 7892  IntersectionExampleScenario.node[54].veinsmobility  acceleration  ETV
vector 7893  IntersectionExampleScenario.node[54].veinsmobility  co2emission  ETV
vector 7896  IntersectionExampleScenario.node[55].veinsmobility  posx  ETV
vector 7897  IntersectionExampleScenario.node[55].veinsmobility  posy  ETV
vector 7898  IntersectionExampleScenario.node[55].veinsmobility  speed  ETV
vector 7899  IntersectionExampleScenario.node[55].veinsmobility  acceleration  ETV
vector 7900  IntersectionExampleScenario.node[55].veinsmobility  co2emission  ETV
7795	1308777 6741 10592 15418 146.5 200.75 218 0.973 11.200708441096 569.39263130971 2685.4383202109
7794	1315518 6096 10592 15418 146.5 200.75 218 -7.5492124557495 4 35.964826583862 464.95119503635
7793	1321614 6514 10565 15418 146.25 200.75 219 0 15.02499961853 2195.2273612022 30022.836036447
7792	1328128 7449 10540 15418 146 200.75 220 184.17810058594 486.85000610352 91726.057952881 40275560.66064
7791	1335577 7472 10540 15418 146 200.75 220 238.12384033203 486.85000610352 98465.713562012 45164313.461424
7802	1343049 7360 10619 15593 146.75 202.75 225 0.973 10.579701886501 597.51572917443 2636.3071926177
7801	1350409 7141 10619 15593 146.75 202.75 225 -4.5 2.5 37.32285118103 425.2672151987
7800	1357550 7489 10592 15593 146.5 202.75 226 0 15.076263427734 2300.9161642026 31313.804965368
7799	1365039 7688 10565 15593 146.25 202.75 227 159.76721191406 487.03961181641 92286.754608154 39998905.317628
7798	1372727 7714 10565 15593 146.25 202.75 227 237.72912597656 486.85000610352 102025.01980591 46946327.791903
vector 7903  IntersectionExampleScenario.node[56].veinsmobility  posx  ETV
vector 7904  IntersectionExampleScenario.node[56].veinsmobility  posy  ETV
vector 7905  IntersectionExampleScenario.node[56].veinsmobility  speed  ETV
vector 7906  IntersectionExampleScenario.node[56].veinsmobility  acceleration  ETV
vector 7907  IntersectionExampleScenario.node[56].veinsmobility  co2emission  ETV
vector 7910  IntersectionExampleScenario.node[57].veinsmobility  posx  ETV
vector 7911  IntersectionExampleScenario.node[57].veinsmobility  posy  ETV
vector 7912  IntersectionExampleScenario.node[57].veinsmobility  speed  ETV
vector 7917  IntersectionExampleScenario.node[58].veinsmobility  posx  ETV
vector 7918  IntersectionExampleScenario.node[58].veinsmobility  posy  ETV
vector 7913  IntersectionExampleScenario.node[57].veinsmobility  acceleration  ETV
vector 7914  IntersectionExampleScenario.node[57].veinsmobility  co2emission  ETV
vector 7919  IntersectionExampleScenario.node[58].veinsmobility  speed  ETV
vector 7920  IntersectionExampleScenario.node[58].veinsmobility  acceleration  ETV
vector 7921  IntersectionExampleScenario.node[58].veinsmobility  co2emission  ETV
vector 7924  IntersectionExampleScenario.node[59].veinsmobility  posx  ETV
vector 7925  IntersectionExampleScenario.node[59].veinsmobility  posy  ETV
vector 7926  IntersectionExampleScenario.node[59].veinsmobility  speed  ETV
vector 7927  IntersectionExampleScenario.node[59].veinsmobility  acceleration  ETV
vector 7928  IntersectionExampleScenario.node[59].veinsmobility  co2emission  ETV
7837	1382025 6047 12622 16761 167.25 214.5 190 0.973 11.36141391502 550.78676604097 2773.1363859632
7836	1388072 5499 12622 16761 167.25 214.5 190 -7.457010269165 4 37.32285118103 467.27674674445
7835	1393571 5876 12599 16761 167 214.5 191 0 15.25 2179.3544082642 30207.236950068
7834	1399447 6463 12576 16761 166.75 214.5 192 236.31317138672 483.14999389648 84413.971374512 38120636.630127
7833	1405910 6500 12576 16761 166.75 214.5 192 184.17810058594 483.36395263672 78416.980895996 33915942.144552
7809	1412410 7928 10799 16807 148.5 215 267 0.973 11.200708441096 616.28484470344 2747.3705999868
7808	1420338 7155 10799 16807 148.5 215 267 -6.8640689849854 4 35.625318527222 451.18975026733
7807	1427493 7546 10772 16807 148.25 215 268 0 15.02499961853 2216.7832789421 30264.160606425
7806	1435039 9144 10745 16807 148 215 269 486.85000610352 486.85000610352 130962.65164185 63759167.751165
7805	1444183 9128 10745 16807 148 215 269 235.25030517578 785.82187652588 137537.42038727 74661590.178095
7816	1453311 7997 10884 16894 149.25 216 268 0.973 11.36141391502 630.54016164289 2859.3420833029
7815	1461308 7181 10884 16894 149.25 216 268 -4.5 2.5 37.15309715271 456.22720663554
7814	1468489 7580 10855 16894 149 216 269 0 15.263425827026 2277.2111690044 31071.149494542
7813	1476069 9168 10826 16894 148.75 216 270 486.85000610352 733.23097229004 139789.984375 73484268.578678
7812	1485237 9166 10826 16894 148.75 216 270 486.85000610352 808.82032012939 149511.08688354 85303579.100945
vector 7931  IntersectionExampleScenario.node[60].veinsmobility  posx  ETV
vector 7932  IntersectionExampleScenario.node[60].veinsmobility  posy  ETV
7823	1494555 6828 12227 16998 162.5 217.25 220 0.973 11.648172402475 589.48669149508 2908.2049352086
7822	1501383 7183 12227 16998 162.5 217.25 220 -3.8781216144562 2.5 39.699392318726 337.82256117793
7821	1508566 7320 12204 16998 162.25 217.25 221 0 15.773181915283 2213.837687362 29884.765242449
7820	1515886 7547 12181 16998 162 217.25 222 486.85000610352 486.85000610352 108080.70135498 52619090.114344
7819	1523433 7530 12181 16998 162 217.25 222 237.52551269531 785.82187652588 115873.72832489 64562325.028968
vector 7933  IntersectionExampleScenario.node[60].veinsmobility  speed  ETV
vector 7934  IntersectionExampleScenario.node[60].veinsmobility  acceleration  ETV
vector 7935  IntersectionExampleScenario.node[60].veinsmobility  co2emission  ETV
vector 7938  IntersectionExampleScenario.node[61].veinsmobility  posx  ETV
vector 7939  IntersectionExampleScenario.node[61].veinsmobility  posy  ETV
vector 7940  IntersectionExampleScenario.node[61].veinsmobility  speed  ETV
vector 7941  IntersectionExampleScenario.node[61].veinsmobility  acceleration  ETV
vector 7942  IntersectionExampleScenario.node[61].veinsmobility  co2emission  ETV
vector 7945  IntersectionExampleScenario.node[62].veinsmobility  posx  ETV
vector 7946  IntersectionExampleScenario.node[62].veinsmobility  posy  ETV
vector 7947  IntersectionExampleScenario.node[62].veinsmobility  speed  ETV
vector 7948  IntersectionExampleScenario.node[62].veinsmobility  acceleration  ETV
vector 7949  IntersectionExampleScenario.node[62].veinsmobility  co2emission  ETV
7858	1531999 5055 13903 17566 185 223.25 154 0.973 12.26218747632 525.68338815994 3151.7311454308
7857	1537054 4808 13903 17566 185 223.25 154 -3.7528343200684 2.5 41.396924972534 308.48440106635
7856	1541862 4917 13884 17566 184.75 223.25 155 5.6500000953674 16.5 2178.9213142395 32252.656898312
7855	1546779 5300 13865 17566 184.5 223.25 156 237.99243164062 483.14999389648 67624.641601562 30190066.273007
7854	1552079 5274 13865 17566 184.5 223.25 156 184.17810058594 483.14999389648 61943.960205078 26297765.118542
vector 7952  IntersectionExampleScenario.node[63].veinsmobility  posx  ETV
vector 7953  IntersectionExampleScenario.node[63].veinsmobility  posy  ETV
vector 7954  IntersectionExampleScenario.node[63].veinsmobility  speed  ETV
7851	1557582 5406 13884 17793 184.75 225.5 164 0.973 11.200708441096 489.18991891622 2474.8953455387
7850	1562988 4844 13884 17793 184.75 225.5 164 -3.4318885803223 2.5 35.795072555542 256.41105506424
7849	1567832 5316 13865 17793 184.5 225.5 165 5.6500000953674 15.02499961853 2178.6360168457 29893.862464205
7848	1573148 5644 13847 17793 184.25 225.5 166 486.85000610352 731.96028137207 89258.956268311 48942401.419579
7847	1578792 5637 13847 17793 184.25 225.5 166 486.85000610352 785.82187652588 95010.405128479 56156656.093751
vector 7955  IntersectionExampleScenario.node[63].veinsmobility  acceleration  ETV
vector 7956  IntersectionExampleScenario.node[63].veinsmobility  co2emission  ETV
vector 7959  IntersectionExampleScenario.node[64].veinsmobility  posx  ETV
vector 7960  IntersectionExampleScenario.node[64].veinsmobility  posy  ETV
vector 7961  IntersectionExampleScenario.node[64].veinsmobility  speed  ETV
vector 7962  IntersectionExampleScenario.node[64].veinsmobility  acceleration  ETV
vector 7963  IntersectionExampleScenario.node[64].veinsmobility  co2emission  ETV
vector 7966  IntersectionExampleScenario.node[65].veinsmobility  posx  ETV
vector 7967  IntersectionExampleScenario.node[65].veinsmobility  posy  ETV
vector 7968  IntersectionExampleScenario.node[65].veinsmobility  speed  ETV
vector 7973  IntersectionExampleScenario.node[66].veinsmobility  posx  ETV
vector 7974  IntersectionExampleScenario.node[66].veinsmobility  posy  ETV
vector 7969  IntersectionExampleScenario.node[65].veinsmobility  acceleration  ETV
vector 7970  IntersectionExampleScenario.node[65].veinsmobility  co2emission  ETV
7830	1585540 7398 12599 18246 167 229.5 251 0.973 12.099024792222 642.32693618682 3297.1851048635
7829	1592938 6831 12599 18246 167 229.5 251 -7.2880325317383 4 41.057416915894 494.45668877536
7828	1599769 7050 12576 18246 166.75 229.5 252 0 16.27499961853 2203.0739369392 32352.72089211
7827	1606819 8588 12555 18246 166.5 229.5 253 239.11395263672 785.82187652588 129919.14409637 70718642.857091
7826	1615407 8602 12555 18246 166.5 229.5 253 483.14999389648 483.14999389648 122236.94845581 59058780.90035
vector 7975  IntersectionExampleScenario.node[66].veinsmobility  speed  ETV
vector 7976  IntersectionExampleScenario.node[66].veinsmobility  acceleration  ETV
vector 7977  IntersectionExampleScenario.node[66].veinsmobility  co2emission  ETV
vector 7980  IntersectionExampleScenario.node[67].veinsmobility  posx  ETV
vector 7981  IntersectionExampleScenario.node[67].veinsmobility  posy  ETV
vector 7982  IntersectionExampleScenario.node[67].veinsmobility  speed  ETV
vector 7983  IntersectionExampleScenario.node[67].veinsmobility  acceleration  ETV
vector 7984  IntersectionExampleScenario.node[67].veinsmobility  co2emission  ETV
7844	1624649 6551 13506 18516 179.25 231.75 211 0.973 11.450879080643 560.29499573133 2774.1545114175
7843	1631200 6703 13506 18516 179.25 231.75 211 -3.713475227356 2.5 37.32285118103 330.43959499864
7842	1637903 6973 13489 18516 179 231.75 212 0 15.375 2202.4099864475 28874.714861362
7841	1644876 7230 13472 18516 178.75 231.75 213 482.93801879883 785.82187652588 118972.73748016 68375637.846801
7840	1652106 7236 13472 18516 178.75 231.75 213 483.14999389648 731.99928283691 111371.01846313 59300109.215741
7872	1659342 5612 14222 18691 189 233.25 178 0.973 11.648172402475 523.78397100936 2795.8239144779
7871	1664954 5627 14222 18691 189 233.25 178 -2.0857429504395 2.5 37.662351608276 264.47160359779
7870	1670581 5860 14201 18691 188.75 233.25 179 4.3804926872253 15.64999961853 2223.4949302673 29713.386439855
7869	1676441 6106 14180 18691 188.5 233.25 180 235.32104492188 785.82187652588 94163.634712219 53481007.538278
7868	1682547 6120 14180 18691 188.5 233.25 180 483.14999389648 483.14999389648 86966.998901367 42018104.988391
vector 7987  IntersectionExampleScenario.node[68].veinsmobility  posx  ETV
vector 7988  IntersectionExampleScenario.node[68].veinsmobility  posy  ETV
vector 7989  IntersectionExampleScenario.node[68].veinsmobility  speed  ETV
vector 7990  IntersectionExampleScenario.node[68].veinsmobility  acceleration  ETV
vector 7991  IntersectionExampleScenario.node[68].veinsmobility  co2emission  ETV
vector 7994  IntersectionExampleScenario.node[69].veinsmobility  posx  ETV
vector 7995  IntersectionExampleScenario.node[69].veinsmobility  posy  ETV
vector 7996  IntersectionExampleScenario.node[69].veinsmobility  speed  ETV
vector 7997  IntersectionExampleScenario.node[69].veinsmobility  acceleration  ETV
vector 7998  IntersectionExampleScenario.node[69].veinsmobility  co2emission  ETV
vector 8001  IntersectionExampleScenario.node[70].veinsmobility  posx  ETV
vector 8002  IntersectionExampleScenario.node[70].veinsmobility  posy  ETV
vector 8003  IntersectionExampleScenario.node[70].veinsmobility  speed  ETV
vector 8008  IntersectionExampleScenario.node[71].veinsmobility  posx  ETV
vector 8009  IntersectionExampleScenario.node[71].veinsmobility  posy  ETV
vector 8004  IntersectionExampleScenario.node[70].veinsmobility  acceleration  ETV
vector 8005  IntersectionExampleScenario.node[70].veinsmobility  co2emission  ETV
vector 8010  IntersectionExampleScenario.node[71].veinsmobility  speed  ETV
vector 8011  IntersectionExampleScenario.node[71].veinsmobility  acceleration  ETV
vector 8012  IntersectionExampleScenario.node[71].veinsmobility  co2emission  ETV
vector 8015  IntersectionExampleScenario.node[72].veinsmobility  posx  ETV
vector 8016  IntersectionExampleScenario.node[72].veinsmobility  posy  ETV
vector 8017  IntersectionExampleScenario.node[72].veinsmobility  speed  ETV
vector 8018  IntersectionExampleScenario.node[72].veinsmobility  acceleration  ETV
vector 8019  IntersectionExampleScenario.node[72].veinsmobility  co2emission  ETV
7865	1690647 7249 13945 20354 185.5 245.5 241 0.973 11.450879080643 599.50608734256 2831.9588516243
7864	1697896 6618 13945 20354 185.5 245.5 241 -6.771110534668 4 36.98334312439 452.58187023827
7863	1704514 6944 13924 20354 185.25 245.5 242 0 15.375 2197.6684861183 30446.00837182
7862	1711458 8233 13903 20354 185 245.5 243 184.17810058594 486.85000610352 102675.89031982 45467697.638655
7861	1719691 8259 13903 20354 185 245.5 243 237.87945556641 486.85000610352 109792.66256714 50721803.863054
7886	1727950 6755 14507 20417 192.25 246 216 0.973 12.26218747632 599.05802511755 3127.8608356327
7885	1734705 7056 14507 20417 192.25 246 216 -3.7138681411743 2.5 41.396924972534 367.08098125692
7884	1741761 7062 14482 20417 192 246 217 0 16.5 2178.0342649464 30333.804237973
7883	1748823 7386 14457 20417 191.75 246 218 184.17810058594 483.14999389648 90266.081604004 39263404.292884
7882	1756209 7407 14457 20417 191.75 246 218 486.85000610352 731.36694335938 113834.35762024 60419691.453093
7907	1763616 5493 15744 20594 204.5 247.5 173 0.973 11.648172402475 538.56562587838 2994.7772873099
7906	1769109 5373 15744 20594 204.5 247.5 173 -3.3332023620605 2.5 38.850629806519 296.82120319311
7905	1774482 5690 15721 20594 204.25 247.5 174 4.3736734390259 15.64999961853 2212.8594489098 30253.864044895
7904	1780172 5900 15698 20594 204 247.5 175 184.17810058594 731.74012756348 77972.766571045 38838939.060109
7903	1786072 5949 15698 20594 204 247.5 175 486.85000610352 486.85000610352 85198.751068115 41479012.477524
vector 8022  IntersectionExampleScenario.node[73].veinsmobility  posx  ETV
vector 8023  IntersectionExampleScenario.node[73].veinsmobility  posy  ETV
vector 8024  IntersectionExampleScenario.node[73].veinsmobility  speed  ETV
vector 8025  IntersectionExampleScenario.node[73].veinsmobility  acceleration  ETV
vector 8026  IntersectionExampleScenario.node[73].veinsmobility  co2emission  ETV
7935	1792417 5273 17040 21618 217.75 257.25 159 0.973 11.450879080643 484.44724015116 2505.8905222211
7934	1797690 4711 17040 21618 217.75 257.25 159 -3.4813270568848 2.5 37.32285118103 228.62192558588
7933	1802401 5159 17019 21618 217.5 257.25 160 5.6500000953674 15.375 2206.7534742355 31288.619008943
7932	1807560 5444 16998 21618 217.25 257.25 161 184.17810058594 486.85000610352 64095.075653076 27308215.373776
7931	1813004 5465 16998 21618 217.25 257.25 161 237.06439208984 486.85000610352 69856.410461426 31278109.228474
vector 8029  IntersectionExampleScenario.node[74].veinsmobility  posx  ETV
vector 8030  IntersectionExampleScenario.node[74].veinsmobility  posy  ETV
vector 8031  IntersectionExampleScenario.node[74].veinsmobility  speed  ETV
7879	1818698 8100 14457 21871 191.75 260 274 0.973 11.200708441096 623.15224890326 2734.5290394722
7878	1826798 7259 14457 21871 191.75 260 274 -7.4537115097046 4 35.625318527222 472.78572211849
7877	1834057 7642 14434 21871 191.5 260 275 0 15.02499961853 2205.2296681404 30065.702974163
7876	1841699 9382 14411 21871 191.25 260 276 235.62408447266 486.85000610352 125509.37493896 58275072.187619
7875	1851081 9378 14411 21871 191.25 260 276 483.14999389648 785.82187652588 149606.80921173 83264947.012672
vector 8032  IntersectionExampleScenario.node[74].veinsmobility  acceleration  ETV
vector 8033  IntersectionExampleScenario.node[74].veinsmobility  co2emission  ETV
7893	1860626 8436 14636 21958 193.5 261 271 0.973 11.36141391502 637.61304561804 2864.40909544
7892	1869062 8312 14636 21958 193.5 261 271 -4.5 2.5 37.15309715271 435.44999290364
7891	1877374 8241 14609 21958 193.25 261 272 0 15.25 2261.1712735444 30906.246848621
7890	1885615 9274 14582 21958 193 261 273 486.85000610352 733.16194152832 141245.57514954 74189358.318622
7889	1894889 9251 14582 21958 193 261 273 486.85000610352 805.05782318115 150594.99586487 85493692.265432
7921	1904140 6994 15871 22021 205.75 261.75 225 0.973 12.099024792222 607.41572227191 3139.908154375
7920	1911134 7285 15871 22021 205.75 261.75 225 -3.7972438335419 2.5000009536743 41.227170944214 349.75511256537
7919	1918419 7501 15844 22021 205.5 261.75 226 0 16.27499961853 2219.5617252011 30523.012466741
7918	1925920 7720 15817 22021 205.25 261.75 227 486.85000610352 486.85000610352 110514.9513855 53804204.756559
7917	1933640 7703 15817 22021 205.25 261.75 227 236.21838378906 785.82187652588 118423.11640167 65819561.544674
7900	1941343 8032 14721 22063 194.25 262.25 273 0.973 11.200708441096 651.415414885 3007.6586223813
7899	1949375 7437 14721 22063 194.25 262.25 273 -6.9154930114746 4 37.492597579956 515.84124710955
7898	1956812 7566 14692 22063 194 262.25 274 0 15.239589691162 2177.0798494816 30200.720862444
7897	1964378 9344 14663 22063 193.75 262.25 275 237.44488525391 483.14999389648 124608.7901001 57563789.918264
7896	1973722 9315 14663 22063 193.75 262.25 275 184.17810058594 483.24322509766 117579.01916504 52390113.006338
vector 8036  IntersectionExampleScenario.node[75].veinsmobility  posx  ETV
vector 8037  IntersectionExampleScenario.node[75].veinsmobility  posy  ETV
vector 8038  IntersectionExampleScenario.node[75].veinsmobility  speed  ETV
vector 8039  IntersectionExampleScenario.node[75].veinsmobility  acceleration  ETV
vector 8040  IntersectionExampleScenario.node[75].veinsmobility  co2emission  ETV
7949	1983433 5801 17266 22322 220.25 265.5 182 0.973 11.200708441096 518.12598922208 2606.2057035091
7948	1989234 5696 17266 22322 220.25 265.5 182 -2.0913848876953 2.5 35.964826583862 266.91265820578
7947	1994930 5911 17241 22322 220 265.5 183 4.6089363098145 15.02499961853 2186.5043258667 28328.947532749
7946	2000841 6251 17216 22322 219.75 265.5 184 236.33782958984 483.14999389648 80358.041534424 36099723.006436
7945	2007092 6220 17216 22322 219.75 265.5 184 184.17810058594 483.1672668457 73917.310699463 31504372.496455
vector 8043  IntersectionExampleScenario.node[76].veinsmobility  posx  ETV
vector 8044  IntersectionExampleScenario.node[76].veinsmobility  posy  ETV
vector 8045  IntersectionExampleScenario.node[76].veinsmobility  speed  ETV
vector 8050  IntersectionExampleScenario.node[77].veinsmobility  posx  ETV
vector 8051  IntersectionExampleScenario.node[77].veinsmobility  posy  ETV
vector 8057  IntersectionExampleScenario.node[78].veinsmobility  posx  ETV
vector 8058  IntersectionExampleScenario.node[78].veinsmobility  posy  ETV
vector 8046  IntersectionExampleScenario.node[76].veinsmobility  acceleration  ETV
vector 8047  IntersectionExampleScenario.node[76].veinsmobility  co2emission  ETV
vector 8052  IntersectionExampleScenario.node[77].veinsmobility  speed  ETV
vector 8059  IntersectionExampleScenario.node[78].veinsmobility  speed  ETV
vector 8053  IntersectionExampleScenario.node[77].veinsmobility  acceleration  ETV
vector 8054  IntersectionExampleScenario.node[77].veinsmobility  co2emission  ETV
vector 8060  IntersectionExampleScenario.node[78].veinsmobility  acceleration  ETV
vector 8061  IntersectionExampleScenario.node[78].veinsmobility  co2emission  ETV
7963	2014500 5437 18040 22665 227.75 270 170 0.973 10.916047529558 505.01859699961 2708.8153490127
7962	2019937 5335 18040 22665 227.75 270 170 -3.2513294219971 2.5 34.267293930054 274.9169980713
7961	2025272 5497 18011 22665 227.5 270 171 5.6500000953674 14.625 2189.764726162 29031.043304779
7960	2030769 5837 17982 22665 227.25 270 172 235.09674072266 483.14999389648 74239.11831665 33050202.123219
7959	2036606 5823 17982 22665 227.25 270 172 184.17810058594 483.14999389648 68481.659698486 29077932.996382
7984	2042429 5131 18516 22688 231.75 270.25 155 0.973 11.990504229548 525.18211391136 2954.0571171381
7983	2047560 4877 18516 22688 231.75 270.25 155 -4.5 2.5 39.869146347046 293.24945614982
7982	2052437 5033 18485 22688 231.5 270.25 156 5.6500000953674 16.125 2241.0813951492 32931.385148725
7981	2057470 5339 18454 22688 231.25 270.25 157 483.14999389648 483.14999389648 75854.549041748 36649124.906541
7980	2062809 5300 18454 22688 231.25 270.25 157 177.97814941406 732.40762329102 69658.735031128 35119423.061123
vector 8064  IntersectionExampleScenario.node[79].veinsmobility  posx  ETV
vector 8065  IntersectionExampleScenario.node[79].veinsmobility  posy  ETV
vector 8066  IntersectionExampleScenario.node[79].veinsmobility  speed  ETV
vector 8067  IntersectionExampleScenario.node[79].veinsmobility  acceleration  ETV
vector 8068  IntersectionExampleScenario.node[79].veinsmobility  co2emission  ETV
7991	2068505 5462 18782 23092 234 274.5 163 0.973 10.756497587458 447.87816911349 1976.2908399435
7990	2073967 4647 18782 23092 234 274.5 163 -3.6567459106445 2.5 34.267293930054 159.25467154026
7989	2078614 5357 18751 23092 233.75 274.5 164 5.6500000953674 14.39999961853 2220.3456325531 30500.206997665
7988	2083971 5610 18720 23092 233.5 274.5 165 486.85000610352 486.85000610352 80330.25100708 39108783.193094
7987	2089581 5598 18720 23092 233.5 274.5 165 235.56262207031 785.82187652588 85698.289382935 48893840.31426
7928	2095179 8420 16162 23202 208.5 275.75 270 0.973 11.200708441096 674.25091409612 2997.4918293336
7927	2103599 8475 16162 23202 208.5 275.75 270 -4.5 2.5 41.396924972534 455.79597798679
7926	2112074 8356 16136 23202 208.25 275.75 271 0 16.053573608398 2259.3769276403 32791.353750039
7925	2120430 9229 16109 23202 208 275.75 272 237.20629882812 797.07032012939 141070.63115692 77459080.579248
7924	2129659 9248 16109 23202 208 275.75 272 483.14999389648 483.14999389648 131416.79833984 63494025.315791
7914	2138907 8364 15817 23223 205.25 276 284 0.973 11.200708441096 638.1435456841 2761.8803137649
7913	2147271 7249 15817 23223 205.25 276 284 -29.999389648438 4 35.964826583862 1252.9993453253
7912	2154520 7773 15792 23223 205 276 285 0 15.02499961853 2211.8518228531 30618.829991456
7911	2162293 9715 15767 23223 204.75 276 286 483.14999389648 785.82187652588 154514.6684494 85665677.016902
7910	2172008 9714 15767 23223 204.75 276 286 483.14999389648 735.53648376465 147074.57258606 76853047.724923
vector 8071  IntersectionExampleScenario.node[80].veinsmobility  posx  ETV
vector 8072  IntersectionExampleScenario.node[80].veinsmobility  posy  ETV
vector 8073  IntersectionExampleScenario.node[80].veinsmobility  speed  ETV
vector 8074  IntersectionExampleScenario.node[80].veinsmobility  acceleration  ETV
vector 8075  IntersectionExampleScenario.node[80].veinsmobility  co2emission  ETV
vector 8078  IntersectionExampleScenario.node[81].veinsmobility  posx  ETV
vector 8079  IntersectionExampleScenario.node[81].veinsmobility  posy  ETV
vector 8080  IntersectionExampleScenario.node[81].veinsmobility  speed  ETV
vector 8081  IntersectionExampleScenario.node[81].veinsmobility  acceleration  ETV
vector 8082  IntersectionExampleScenario.node[81].veinsmobility  co2emission  ETV
7956	2182514 6596 17820 23515 225.75 279.25 215 0.973 12.099024792222 590.81094086248 3027.0307048076
7955	2189110 6987 17820 23515 225.75 279.25 215 -3.7843215465546 2.5 40.548154830933 354.67238411094
7954	2196097 7009 17793 23515 225.5 279.25 216 0 16.27499961853 2189.4202753156 29270.531848708
7953	2203106 7362 17766 23515 225.25 279.25 217 486.85000610352 785.82187652588 121323.4752121 69668190.991542
7952	2210468 7374 17766 23515 225.25 279.25 217 236.05786132812 483.14999389648 96839.781890869 44230647.326365
7998	2217842 5671 19003 23630 235.75 280.5 180 0.97223939240464 11.648172402475 541.71465774843 2970.7713482237
7997	2223513 5541 19003 23630 235.75 280.5 180 -2.1180839538574 2.5 38.680875778198 293.27628637171
7996	2229054 5919 18970 23630 235.5 280.5 181 3.9681615829468 15.64999961853 2212.7373538017 29577.585522266
7995	2234973 6182 18937 23630 235.25 280.5 182 238.13635253906 785.82187652588 95624.060279846 54361337.510458
7994	2241155 6189 18937 23630 235.25 280.5 182 483.14999389648 483.14999389648 87933.29888916 42484972.821595
vector 8085  IntersectionExampleScenario.node[82].veinsmobility  posx  ETV
vector 8086  IntersectionExampleScenario.node[82].veinsmobility  posy  ETV
vector 8087  IntersectionExampleScenario.node[82].veinsmobility  speed  ETV
vector 8092  IntersectionExampleScenario.node[83].veinsmobility  posx  ETV
vector 8093  IntersectionExampleScenario.node[83].veinsmobility  posy  ETV
vector 8088  IntersectionExampleScenario.node[82].veinsmobility  acceleration  ETV
vector 8089  IntersectionExampleScenario.node[82].veinsmobility  co2emission  ETV
vector 8094  IntersectionExampleScenario.node[83].veinsmobility  speed  ETV
vector 8095  IntersectionExampleScenario.node[83].veinsmobility  acceleration  ETV
vector 8096  IntersectionExampleScenario.node[83].veinsmobility  co2emission  ETV
8005	2248136 5581 19535 23825 239.75 282.5 172 0.97223939240464 11.648172402475 516.00567165833 2689.3429078467
8004	2253717 5528 19535 23825 239.75 282.5 172 -3.8314666748047 2.5 38.680875778198 258.23318939977
8003	2259245 5673 19500 23825 239.5 282.5 173 5.6500000953674 15.64999961853 2244.1973581314 30688.417885979
8002	2264918 5906 19465 23825 239.25 282.5 174 236.35809326172 792.02188110352 91665.151412964 52576726.215368
8001	2270824 5917 19465 23825 239.25 282.5 174 483.14999389648 483.14999389648 84068.098937988 40617501.488778
vector 8099  IntersectionExampleScenario.node[84].veinsmobility  posx  ETV
vector 8100  IntersectionExampleScenario.node[84].veinsmobility  posy  ETV
vector 8101  IntersectionExampleScenario.node[84].veinsmobility  speed  ETV
vector 8102  IntersectionExampleScenario.node[84].veinsmobility  acceleration  ETV
vector 8103  IntersectionExampleScenario.node[84].veinsmobility  co2emission  ETV
7942	2277137 8495 17170 24620 219.25 291 288 0.973 11.200708441096 646.24473747674 2798.1824117891
7941	2285632 7601 17170 24620 219.25 291 288 -7.1523456573486 4 35.795072555542 490.52335188214
7940	2293233 8015 17147 24620 219 291 289 0 15.02499961853 2300.5183079243 31687.006893497
7939	2301248 9828 17124 24620 218.75 291 290 163.88433837891 735.35032653809 131570.90066528 64555291.870866
7938	2311076 9859 17124 24620 218.75 291 290 486.85000610352 486.85000610352 141186.50177002 68736649.248468
vector 8106  IntersectionExampleScenario.node[85].veinsmobility  posx  ETV
vector 8107  IntersectionExampleScenario.node[85].veinsmobility  posy  ETV
7970	2321087 7788 18246 24683 229.5 291.75 250 0.97223939240464 11.810082123732 612.18066835474 3036.2887405467
7969	2328875 8228 18246 24683 229.5 291.75 250 -3.757440328598 2.5000000074506 38.680875778198 345.82882290766
7968	2337103 8207 18216 24683 229.25 291.75 251 0 15.875 2190.828868622 29042.363117591
7967	2345310 8531 18185 24683 229 291.75 252 184.17810058594 483.14999389648 105668.8107605 46277350.984708
7966	2353841 8559 18185 24683 229 291.75 252 486.85000610352 734.7151184082 130921.95861816 69106488.848325
vector 8108  IntersectionExampleScenario.node[85].veinsmobility  speed  ETV
vector 8109  IntersectionExampleScenario.node[85].veinsmobility  acceleration  ETV
vector 8110  IntersectionExampleScenario.node[85].veinsmobility  co2emission  ETV
7977	2362644 8133 18308 24933 230 294.75 260 0.973 11.459696814938 635.24427359372 2938.9342367887
7976	2370777 8456 18308 24933 230 294.75 260 -4.5 2.5 37.832105636597 435.2167274644
7975	2379233 8518 18277 24933 229.75 294.75 261 0 15.387310028076 2307.479265742 29831.269984343
7974	2387751 8868 18246 24933 229.5 294.75 262 160.43438720703 486.85000610352 106992.93493652 46170284.294731
7973	2396619 8906 18246 24933 229.5 294.75 262 235.54162597656 486.85000610352 118992.86270142 55197134.305233
8012	2405525 7058 19610 25112 240.25 297.25 229 0.973 11.200708441096 566.61062737571 2679.5166763404
8011	2412583 7186 19610 25112 240.25 297.25 229 -3.8109700679779 2.5000009536743 36.813589096069 328.69885917731
8010	2419769 7557 19573 25112 240 297.25 230 0 15.02499961853 2225.0290685892 28799.187999766
8009	2427326 7788 19535 25112 239.75 297.25 231 184.17810058594 735.36569213867 103385.40805054 50568528.066277
8008	2435114 7854 19535 25112 239.75 297.25 231 486.85000610352 486.85000610352 112462.35140991 54752296.470331
vector 8113  IntersectionExampleScenario.node[86].veinsmobility  posx  ETV
vector 8114  IntersectionExampleScenario.node[86].veinsmobility  posy  ETV
vector 8115  IntersectionExampleScenario.node[86].veinsmobility  speed  ETV
vector 8116  IntersectionExampleScenario.node[86].veinsmobility  acceleration  ETV
vector 8117  IntersectionExampleScenario.node[86].veinsmobility  co2emission  ETV
vector 8120  IntersectionExampleScenario.node[87].veinsmobility  posx  ETV
vector 8121  IntersectionExampleScenario.node[87].veinsmobility  posy  ETV
vector 8122  IntersectionExampleScenario.node[87].veinsmobility  speed  ETV
vector 8123  IntersectionExampleScenario.node[87].veinsmobility  acceleration  ETV
vector 8124  IntersectionExampleScenario.node[87].veinsmobility  co2emission  ETV
8026	2443760 6119 21393 25616 255 303.75 196 0.973 12.099024792222 586.57265660475 3201.4339879084
8025	2449879 5539 21393 25616 255 303.75 196 -9.4888134002686 4 40.887662887573 530.06788007151
8024	2455418 5906 21367 25616 254.75 303.75 197 0 16.27499961853 2180.4144985676 31701.827442564
8023	2461324 6659 21340 25616 254.5 303.75 198 236.62127685547 483.14999389648 87768.026672363 39881889.686747
8022	2467983 6712 21340 25616 254.5 303.75 198 184.17810058594 483.36395263672 81678.342773438 35578662.619244
8019	2474695 7509 19864 25673 242 304.5 251 0.973 11.36141391502 610.13976604097 2830.8868549632
8018	2482204 6719 19864 25673 242 304.5 251 -7.3439340591431 4 37.32285118103 466.2801642023
8017	2488923 7100 19827 25673 241.75 304.5 252 0 15.25 2179.0751368999 30203.864518701
8016	2496023 8538 19790 25673 241.5 304.5 253 486.85000610352 733.68672180176 131523.87576294 69468726.443987
8015	2504561 8591 19790 25673 241.5 304.5 253 486.63604736328 785.82187652588 138224.34279633 77591246.853106
8033	2513152 5791 21894 25801 260.25 306.25 185 0.96333723109819 12.099024792222 552.18894044786 3001.2715357092
8032	2518943 5879 21894 25801 260.25 306.25 185 -2.1437759399414 2.5 40.208654403687 297.2249993914
8031	2524822 6014 21871 25801 260 306.25 186 2.594978094101 16.27499961853 2182.5798346996 29475.690585907
8030	2530836 6352 21848 25801 259.75 306.25 187 486.85000610352 732.19749450684 98955.213134766 53316529.287037
8029	2537188 6327 21848 25801 259.75 306.25 187 486.6872253418 785.82187652588 105773.34386444 61605496.861288
8040	2543515 5604 22243 25920 264.5 308 175 0.973 11.648172402475 549.36865469554 3117.2089878485
8039	2549119 5497 22243 25920 264.5 308 175 -4.5 2.5 38.341367721558 351.04509753329
8038	2554616 5752 22222 25920 264.25 308 176 4.7738909721375 15.64999961853 2230.0785093307 30366.687864373
8037	2560368 6016 22201 25920 264 308 177 486.85000610352 486.85000610352 86172.451080322 41953058.33441
8036	2566384 5995 22201 25920 264 308 177 237.58453369141 790.18281555176 93230.762863159 53340213.502581
8054	2572379 5188 22619 26013 269.5 309.5 161 0.973 11.648172402475 514.42098195081 2781.842877055
8053	2577567 5007 22619 26013 269.5 309.5 161 -4.5 2.5 40.038900375366 271.90396255974
8052	2582574 5273 22596 26013 269.25 309.5 162 5.6500000953674 15.720481872559 2117.8529691696 29190.497682222
8051	2587847 5541 22573 26013 269 309.5 163 486.85000610352 486.85000610352 79356.550994873 38634737.336208
8050	2593388 5527 22573 26013 269 309.5 163 237.74346923828 761.87773895264 83950.94733429 46822701.738235
vector 8127  IntersectionExampleScenario.node[88].veinsmobility  posx  ETV
vector 8128  IntersectionExampleScenario.node[88].veinsmobility  posy  ETV
8047	2599067 5577 22573 26163 269 312 173 0.973 10.671506727784 492.86555127165 2353.3842869102
8046	2604644 5531 22573 26163 269 312 173 -4.5 2.5 37.15309715271 199.67515295561
8045	2610175 5723 22554 26163 268.75 312 174 5.3172473907471 15.307458877563 2232.0097155571 29718.557547448
8044	2615898 5949 22535 26163 268.5 312 175 486.85000610352 486.85000610352 85198.751068115 41479012.477524
8043	2621847 5910 22535 26163 268.5 312 175 237.37658691406 790.44610595703 92906.036094666 53827851.2705
vector 8129  IntersectionExampleScenario.node[88].veinsmobility  speed  ETV
vector 8130  IntersectionExampleScenario.node[88].veinsmobility  acceleration  ETV
vector 8131  IntersectionExampleScenario.node[88].veinsmobility  co2emission  ETV
vector 8134  IntersectionExampleScenario.node[89].veinsmobility  posx  ETV
vector 8135  IntersectionExampleScenario.node[89].veinsmobility  posy  ETV
vector 8141  IntersectionExampleScenario.node[90].veinsmobility  posx  ETV
vector 8142  IntersectionExampleScenario.node[90].veinsmobility  posy  ETV
vector 8136  IntersectionExampleScenario.node[89].veinsmobility  speed  ETV
vector 8137  IntersectionExampleScenario.node[89].veinsmobility  acceleration  ETV
vector 8138  IntersectionExampleScenario.node[89].veinsmobility  co2emission  ETV
vector 8143  IntersectionExampleScenario.node[90].veinsmobility  speed  ETV
vector 8144  IntersectionExampleScenario.node[90].veinsmobility  acceleration  ETV
vector 8145  IntersectionExampleScenario.node[90].veinsmobility  co2emission  ETV
vector 8148  IntersectionExampleScenario.node[91].veinsmobility  posx  ETV
vector 8149  IntersectionExampleScenario.node[91].veinsmobility  posy  ETV
vector 8150  IntersectionExampleScenario.node[91].veinsmobility  speed  ETV
vector 8151  IntersectionExampleScenario.node[91].veinsmobility  acceleration  ETV
vector 8152  IntersectionExampleScenario.node[91].veinsmobility  co2emission  ETV
8075	2629189 5484 23311 26733 277 319.5 171 0.973 12.26218747632 565.76043386307 3312.6942081553
8074	2634673 5404 23311 26733 277 319.5 171 -8.7166233062744 4 41.396924972534 522.97164590415
8073	2640077 5356 23288 26733 276.75 319.5 172 0 16.5 2170.8504881859 31779.469425408
8072	2645433 5875 23265 26733 276.5 319.5 173 486.63604736328 785.82187652588 97887.995780945 57169531.459849
8071	2651308 5801 23265 26733 276.5 319.5 173 238.51751708984 483.14999389648 75873.978393555 34184902.542969
8082	2657109 5508 23515 26866 279.25 321.25 169 0.973 12.26218747632 572.78323652245 3316.562713898
8081	2662617 5309 23515 26866 279.25 321.25 169 -4.5 2.5 42.924703598022 421.99042884286
8080	2667926 5492 23492 26866 279 321.25 170 2.5840322971344 16.5 2245.9695470333 33113.499110994
8079	2673418 5799 23469 26866 278.75 321.25 171 486.66470336914 802.70781707764 98236.151100159 58429607.965646
8078	2679217 5805 23469 26866 278.75 321.25 171 238.78704833984 483.14999389648 75087.567779541 33860115.231218
vector 8155  IntersectionExampleScenario.node[92].veinsmobility  posx  ETV
vector 8156  IntersectionExampleScenario.node[92].veinsmobility  posy  ETV
vector 8157  IntersectionExampleScenario.node[92].veinsmobility  speed  ETV
8089	2685251 5669 23700 27094 281.25 324.75 175 0.973 11.450879080643 562.42552207661 3173.4758759806
8088	2690920 5321 23700 27094 281.25 324.75 175 -3.9993171691895 2.5 37.32285118103 351.60204191042
8087	2696241 5700 23677 27094 281 324.75 176 5.6500000953674 15.375 2309.4203567505 31584.931340872
8086	2701941 6002 23653 27094 280.75 324.75 177 483.11999511719 812.36485290527 102821.03486633 61956569.031426
8085	2707943 6014 23653 27094 280.75 324.75 177 483.14999389648 732.30665588379 93999.534423828 50922865.933809
[...]
11333	20000069 10183 168574 176220 1690.75 1759.75 277 238.60729980469 483.14999389648 125996.49551392 58360297.539814
11372	20010252 6737 171381 176499 1713 1762 197 0.973 11.200708441096 535.53228883063 2628.2237340342
11371	20016989 6880 171381 176499 1713 1762 197 -2.0914916992188 2.5 35.964826583862 291.40332384567
11370	20023869 7173 171352 176499 1712.75 1762 198 1.4572014808655 15.02499961853 2221.8569303751 28951.90009759
11369	20031042 7345 171323 176499 1712.5 1762 199 234.9658203125 785.82187652588 103461.75395966 58101159.043176
11368	20038387 7362 171323 176499 1712.5 1762 199 483.14999389648 483.14999389648 96146.8487854 46453349.403832
vector 11515  IntersectionExampleScenario.node[572].veinsmobility  posx  ETV
vector 11516  IntersectionExampleScenario.node[572].veinsmobility  posy  ETV
vector 11517  IntersectionExampleScenario.node[572].veinsmobility  speed  ETV
vector 11518  IntersectionExampleScenario.node[572].veinsmobility  acceleration  ETV
vector 11519  IntersectionExampleScenario.node[572].veinsmobility  co2emission  ETV
11393	20046155 5924 172492 176905 1723 1765.25 170 0.973 11.648172402475 558.72409509688 3337.3273521139
11392	20052079 5752 172492 176905 1723 1765.25 170 -3.2689380645752 2.5 37.662351608276 360.68322190975
11391	20057831 5999 172463 176905 1722.75 1765.25 171 5.6500000953674 15.64999961853 2179.9388194084 29291.952027712
11390	20063830 6348 172434 176905 1722.5 1765.25 172 486.71960449219 785.82187652588 98326.61655426 57966651.656097
11389	20070178 6353 172434 176905 1722.5 1765.25 172 237.77478027344 483.14999389648 74882.355804443 33547882.467057
vector 11522  IntersectionExampleScenario.node[573].veinsmobility  posx  ETV
vector 11523  IntersectionExampleScenario.node[573].veinsmobility  posy  ETV
vector 11524  IntersectionExampleScenario.node[573].veinsmobility  speed  ETV
vector 11525  IntersectionExampleScenario.node[573].veinsmobility  acceleration  ETV
vector 11526  IntersectionExampleScenario.node[573].veinsmobility  co2emission  ETV
11400	20076937 5442 173070 177002 1728 1766 153 0.973 11.648172402475 514.88280485922 2845.724836986
11399	20082379 5317 173070 177002 1728 1766 153 -4.5 2.5 41.566686630249 251.96288142694
11398	20087696 5468 173043 177002 1727.75 1766 154 5.6500000953674 16.074443817139 2210.6110525131 32542.292591572
11397	20093164 5717 173014 177002 1727.5 1766 155 238.86358642578 785.82187652588 81255.080619812 46563380.947811
11396	20098881 5734 173014 177002 1727.5 1766 155 483.14999389648 483.14999389648 74888.249053955 36182257.073337
vector 11529  IntersectionExampleScenario.node[574].veinsmobility  posx  ETV
vector 11530  IntersectionExampleScenario.node[574].veinsmobility  posy  ETV
vector 11531  IntersectionExampleScenario.node[574].veinsmobility  speed  ETV
vector 11532  IntersectionExampleScenario.node[574].veinsmobility  acceleration  ETV
vector 11533  IntersectionExampleScenario.node[574].veinsmobility  co2emission  ETV
vector 11536  IntersectionExampleScenario.node[575].veinsmobility  posx  ETV
vector 11537  IntersectionExampleScenario.node[575].veinsmobility  posy  ETV
vector 11538  IntersectionExampleScenario.node[575].veinsmobility  speed  ETV
vector 11539  IntersectionExampleScenario.node[575].veinsmobility  acceleration  ETV
vector 11540  IntersectionExampleScenario.node[575].veinsmobility  co2emission  ETV
11407	20105427 6046 173155 177671 1728.75 1770.75 169 0.973 11.370413682012 540.09446618877 2920.675478426
11406	20111473 5903 173155 177671 1728.75 1770.75 169 -4.5 2.5 37.32285118103 320.21262253428
11405	20117376 5974 173126 177671 1728.5 1770.75 170 5.6500000953674 15.262582778931 2283.078666687 31919.408161385
11404	20123350 6316 173097 177671 1728.25 1770.75 171 486.72274780273 808.82032012939 99385.017326355 59895945.874607
11403	20129666 6317 173097 177671 1728.25 1770.75 171 235.06506347656 483.14999389648 74177.104095459 33151815.197412
11386	20135983 7586 172024 178292 1718.75 1775.25 227 0.973 11.648172402475 595.53396353784 2940.6827650903
11385	20143569 6891 172024 178292 1718.75 1775.25 227 -7.092942237854 4 38.341367721558 476.74128165784
11384	20150460 7276 171995 178292 1718.5 1775.25 228 0 15.64999961853 2177.7517211437 30631.668078274
11383	20157736 8448 171966 178292 1718.25 1775.25 229 184.17810058594 483.36395263672 96011.334625244 42254765.801925
11382	20166184 8405 171966 178292 1718.25 1775.25 229 486.85000610352 733.04777526855 119670.3992157 63583209.118326
vector 11543  IntersectionExampleScenario.node[576].veinsmobility  posx  ETV
vector 11544  IntersectionExampleScenario.node[576].veinsmobility  posy  ETV
vector 11545  IntersectionExampleScenario.node[576].veinsmobility  speed  ETV
vector 11546  IntersectionExampleScenario.node[576].veinsmobility  acceleration  ETV
vector 11547  IntersectionExampleScenario.node[576].veinsmobility  co2emission  ETV
11435	20174995 5839 174146 178861 1739 1780 165 0.973 11.462812841762 546.94212481428 3257.5734921136
11434	20180834 5615 174146 178861 1739 1780 165 -3.8208522796631 2.5 36.813589096069 344.1342242151
11433	20186449 5822 174121 178861 1738.75 1780 166 5.6500000953674 15.391659736633 2178.9482579231 29816.325487627
11432	20192271 6151 174096 178861 1738.5 1780 167 184.17810058594 483.14999389648 66415.360717773 28177902.387132
11431	20198422 6168 174096 178861 1738.5 1780 167 486.85000610352 732.4483795166 89639.35218811 49060560.679263
vector 11550  IntersectionExampleScenario.node[577].veinsmobility  posx  ETV
vector 11551  IntersectionExampleScenario.node[577].veinsmobility  posy  ETV
vector 11552  IntersectionExampleScenario.node[577].veinsmobility  speed  ETV
vector 11553  IntersectionExampleScenario.node[577].veinsmobility  acceleration  ETV
vector 11554  IntersectionExampleScenario.node[577].veinsmobility  co2emission  ETV
vector 11557  IntersectionExampleScenario.node[578].veinsmobility  posx  ETV
vector 11558  IntersectionExampleScenario.node[578].veinsmobility  posy  ETV
vector 11559  IntersectionExampleScenario.node[578].veinsmobility  speed  ETV
vector 11560  IntersectionExampleScenario.node[578].veinsmobility  acceleration  ETV
vector 11561  IntersectionExampleScenario.node[578].veinsmobility  co2emission  ETV
vector 11564  IntersectionExampleScenario.node[579].veinsmobility  posx  ETV
vector 11565  IntersectionExampleScenario.node[579].veinsmobility  posy  ETV
vector 11566  IntersectionExampleScenario.node[579].veinsmobility  speed  ETV
vector 11567  IntersectionExampleScenario.node[579].veinsmobility  acceleration  ETV
vector 11568  IntersectionExampleScenario.node[579].veinsmobility  co2emission  ETV
vector 11571  IntersectionExampleScenario.node[580].veinsmobility  posx  ETV
vector 11572  IntersectionExampleScenario.node[580].veinsmobility  posy  ETV
vector 11573  IntersectionExampleScenario.node[580].veinsmobility  speed  ETV
vector 11574  IntersectionExampleScenario.node[580].veinsmobility  acceleration  ETV
vector 11575  IntersectionExampleScenario.node[580].veinsmobility  co2emission  ETV
11449	20206214 6116 174682 179860 1745 1788.5 175 0.973 12.26218747632 569.90986554203 3305.6133532073
11448	20212330 5878 174682 179860 1745 1788.5 175 -9.2126445770264 4 41.396924972534 526.89483318403
11447	20218208 5979 174657 179860 1744.75 1788.5 176 0 16.5 2173.0579602718 31776.319095288
11446	20224187 6475 174632 179860 1744.5 1788.5 177 486.85000610352 731.48248291016 93883.421615601 50713176.148725
11445	20230662 6543 174632 179860 1744.5 1788.5 177 486.63604736328 785.82187652588 99883.417411804 58164963.623493
11414	20237205 7443 173771 180012 1734.75 1789.75 221 0.973 11.36141391502 572.41267797725 2770.1826050991
11413	20244648 6927 173771 180012 1734.75 1789.75 221 -7.5492105484009 4 35.964826583862 470.2091144509
11412	20251575 7192 173748 180012 1734.5 1789.75 222 0 15.25 2176.5375258923 29657.885744963
11411	20258767 8180 173725 180012 1734.25 1789.75 223 236.85040283203 483.14999389648 99251.782806396 45243381.273038
11410	20266947 8223 173725 180012 1734.25 1789.75 223 184.17810058594 483.36395263672 92884.336151123 40693961.303199
11428	20275170 7654 174073 180258 1738.25 1792 216 0.973 11.021102961056 556.28729661254 2491.8845670317
11427	20282824 7632 174073 180258 1738.25 1792 216 -4.4764175415039 2.5000002384186 34.94630241394 381.16322401039
11426	20290456 7992 174050 180258 1738 1792 217 0 14.772836685181 2171.4886959195 28632.924576248
11425	20298448 8055 174027 180258 1737.75 1792 218 483.14999389648 735.24919128418 114354.02210999 61129382.536003
11424	20306503 8017 174027 180258 1737.75 1792 218 194.40313720703 486.87289428711 91126.371459961 39926555.368655
11421	20314520 7690 174027 180338 1737.75 1792.75 221 0.973 11.54047740176 596.9689901678 2760.3321854977
11420	20322210 7688 174027 180338 1737.75 1792.75 221 -4.5 2.5000009536743 37.15309715271 436.25887957993
11419	20329898 8022 174006 180338 1737.5 1792.75 222 0 15.5 2261.2113719685 29725.324739628
11418	20337920 8253 173984 180338 1737.25 1792.75 223 483.14999389648 483.14999389648 107742.44863892 52055763.402284
11417	20346173 8225 173984 180338 1737.25 1792.75 223 171.40313720703 732.30813598633 97982.163146973 47803914.994249
11442	20354398 7228 174611 180720 1744.25 1796.75 211 0.973 11.200708441096 573.3958115344 2886.9179857914
11441	20361626 7245 174611 180720 1744.25 1796.75 211 -3.8980779647827 2.5 35.625318527222 404.68018443789
11440	20368871 7530 174590 180720 1744 1796.75 212 0 15.02499961853 2190.0094135255 27868.635651495
11439	20376401 7857 174569 180720 1743.75 1796.75 213 235.30987548828 483.14999389648 94261.967529297 42790729.162138
11438	20384258 7858 174569 180720 1743.75 1796.75 213 184.17810058594 483.32760620117 86810.248657227 37245177.488098
11456	20392116 7479 174682 180846 1745 1798.25 214 0.973 11.031415711071 588.14975991825 2783.6013652057
11455	20399595 7499 174682 180846 1745 1798.25 214 -4.5 2.5 37.832105636597 427.99228871735
11454	20407094 7651 174657 180846 1744.75 1798.25 215 0 15.170523643494 2272.1152620018 29287.99616902
11453	20414745 7984 174632 180846 1744.5 1798.25 216 238.49139404297 483.14999389648 96216.0105896 43876203.465754
11452	20422729 7960 174632 180846 1744.5 1798.25 216 161.1796875 483.14999389648 85975.977142334 36424675.575445
vector 11578  IntersectionExampleScenario.node[581].veinsmobility  posx  ETV
vector 11579  IntersectionExampleScenario.node[581].veinsmobility  posy  ETV
vector 11580  IntersectionExampleScenario.node[581].veinsmobility  speed  ETV
11463	20430924 7284 174965 180996 1748 1800 209 0.973 11.36141391502 571.76550229872 2848.3787601538
11462	20438208 7235 174965 180996 1748 1800 209 -4.5 2.5 36.474081039429 486.3324816671
11461	20445443 7421 174940 180996 1747.75 1800 210 0 15.25 2199.9774050936 28116.979468826
11460	20452864 7793 174915 180996 1747.5 1800 211 256.90258789062 483.14999389648 94810.872528076 43433812.952259
11459	20460657 7786 174915 180996 1747.5 1800 211 159.90386962891 483.14999389648 83369.596160889 35141509.169934
11470	20468443 6829 175019 180996 1748.5 1800 207 0.973 11.648172402475 553.20766756853 2877.7311206277
11469	20475272 6625 175019 180996 1748.5 1800 207 -7.2000722885132 4 38.511137008667 472.99191278101
11468	20481897 6547 174992 180996 1748.25 1800 208 0 15.64999961853 1881.3968789577 26288.239918201
11467	20488444 7719 174965 180996 1748 1800 209 483.14999389648 785.82187652588 116203.25279999 66541676.77093
11466	20496163 7725 174965 180996 1748 1800 209 483.14999389648 653.03520202637 104917.42271423 53037647.030179
11477	20503888 6598 175411 180996 1752.5 1800 191 0.973 11.36141391502 512.55883656657 2643.1983774667
11476	20510486 6747 175411 180996 1752.5 1800 191 -3.8006629943848 2.5 37.153791427612 365.47741705429
11475	20517233 6812 175386 180996 1752.25 1800 192 0 15.25 1790.4529652502 23449.652472756
11474	20524045 7130 175361 180996 1752 1800 193 486.85000610352 792.02188110352 109731.93238831 64266497.035564
11473	20531175 7137 175361 180996 1752 1800 193 341.34631347656 483.14999389648 90394.853027344 42561959.840386
11484	20538312 6257 175564 180996 1754 1800 185 0.973 11.450879080643 517.85565736843 2704.0237311463
11483	20544569 6366 175564 180996 1754 1800 185 -4.5 2.5000009536743 38.512754440308 419.96094562612
11482	20550935 6590 175538 180996 1753.75 1800 186 0 15.375 1761.8467214182 22183.333769236
11481	20557525 6907 175511 180996 1753.5 1800 187 483.12121582031 809.21562957764 109025.83945465 65559104.84107
11480	20564432 6917 175511 180996 1753.5 1800 187 483.14999389648 598.52059936523 92228.091918945 45610099.459965
11491	20571349 5867 175876 180996 1757 1800 173 0.973 11.200708441096 478.52605056746 2507.2650806776
11490	20577216 6132 175876 180996 1757 1800 173 -4.5 2.5000019073486 35.97731590271 367.99724091858
11489	20583348 6228 175845 180996 1756.75 1800 174 2.489669084549 15.02499961853 1667.3547987938 20151.795540045
11488	20589576 6455 175814 180996 1756.5 1800 175 398.33346557617 810.29376220703 103059.42489624 62820009.915334
11487	20596031 6474 175814 180996 1756.5 1800 175 483.14999389648 483.14999389648 84551.248931885 40850935.40538
11498	20602505 5372 175876 180996 1757 1800 173 0.973 11.200708441096 340.38485011739 1400.8363613917
11497	20607877 4939 175876 180996 1757 1800 173 -8.487024307251 2.5 -22.60000038147 321.63817737312
11496	20612816 5236 175845 180996 1756.75 1800 174 0 15.02499961853 1146.267865181 15799.946499494
11495	20618052 6455 175814 180996 1756.5 1800 175 184.17810058594 471.60000610352 69523.629730225 29302362.183811
11494	20624507 6474 175814 180996 1756.5 1800 175 486.85000610352 486.85000610352 85198.751068115 41479012.477524
11505	20630981 5982 175876 180996 1757 1800 173 0.973 12.220941526417 594.72757117682 3501.6900422693
11504	20636963 5797 175876 180996 1757 1800 173 -4.5 2.5000019073486 42.241727828979 494.50146941579
11503	20642760 6120 175845 180996 1756.75 1800 174 1.3546385765076 16.443181991577 2024.934476614 27534.294075637
11502	20648880 6470 175814 180996 1756.5 1800 175 277.63983154297 483.14999389648 79079.27255249 36303511.300084
11501	20655350 6447 175814 180996 1756.5 1800 175 184.17810058594 483.16754150391 69572.576507568 29330571.466766
11512	20661797 5299 176096 180996 1758.75 1800 166 0.973 12.099024792222 392.91531200578 1929.1201969156
11511	20667096 5091 176096 180996 1758.75 1800 166 -20.831569671631 2.5000009536743 -22.60000038147 886.85671039424
11510	20672187 5377 176064 180996 1758.5 1800 167 0 16.27499961853 1226.8169125319 16319.539834789
11509	20677564 6216 176031 180996 1758.25 1800 168 483.14999389648 483.14999389648 81169.198974609 39216897.989165
11508	20683780 6189 176031 180996 1758.25 1800 168 164.94219970703 471.60000610352 64152.521392822 26264194.708762
11519	20689969 4914 176657 180996 1763.25 1800 148 0.973 11.200708441096 425.44680220011 2304.7424165603
11518	20694883 5180 176657 180996 1763.25 1800 148 -3.2015314102173 2.5 37.158246994019 265.03398728314
11517	20700063 5336 176625 180996 1763 1800 149 2.3995232582092 15.02499961853 1451.0741281509 16902.966296725
11516	20705399 5524 176592 180996 1762.75 1800 150 428.39282226562 785.82187652588 88889.844215393 54145362.009862
11515	20710923 5549 176592 180996 1762.75 1800 150 483.14999389648 483.14999389648 72472.499084473 35015087.490326
11526	20716472 4610 177002 180996 1766 1800 137 0.973 10.756497587458 305.56183723317 1441.3577139468
11525	20721082 5023 177002 180996 1766 1800 137 -4.5 2.5 -22.60000038147 264.29628300232
11524	20726105 5063 176969 180996 1765.75 1800 138 0 14.39999961853 1121.1420243364 13868.434992969
11523	20731168 5142 176936 180996 1765.5 1800 139 483.14999389648 483.14999389648 67157.849151611 32447314.407702
11522	20736310 5106 176936 180996 1765.5 1800 139 184.17810058594 465.07455444336 51396.958282471 20321430.427167
11533	20741416 4469 177171 180996 1767.25 1800 132 0.973 10.756497587458 320.33547106135 1390.7878094333
11532	20745885 4764 177171 180996 1767.25 1800 132 -4.5 2.5 -21.836827158928 307.66404454183
11531	20750649 4896 177136 180996 1767 1800 133 0 15.63510799408 1177.4199892096 15379.494685021
11530	20755545 4957 177101 180996 1766.75 1800 134 483.14999389648 483.14999389648 64742.099182129 31280144.824691
11529	20760502 4928 177101 180996 1766.75 1800 134 162.90466308594 457.49606323242 47442.198913574 18199960.347426
11540	20765430 3898 177560 180996 1770 1800 121 0.973 10.756497587458 264.2844634427 1174.4834546837
11539	20769328 4434 177560 180996 1770 1800 121 -3.946576833725 2.5 -22.155750989914 169.76571542177
11538	20773762 4490 177523 180996 1769.75 1800 122 0 14.39999961853 1116.5455040112 13385.867271657
11537	20778252 4520 177486 180996 1769.5 1800 123 184.17810058594 463.63055419922 43805.678924561 16706659.51655
11536	20782772 4550 177486 180996 1769.5 1800 123 486.85000610352 486.85000610352 59882.550750732 29153820.198488
11547	20787322 3005 178742 180996 1779 1800 85 0.973 11.200708441096 251.30288545919 1303.7822257087
11546	20790327 2914 178742 180996 1779 1800 85 -3.3350830078125 2.5 -0.71570777893066 206.4805726615
11545	20793241 3167 178711 180996 1778.75 1800 86 5.4710731506348 15.02499961853 1133.3755483627 15547.11063311
11544	20796408 3218 178680 180996 1778.5 1800 87 486.85000610352 486.85000610352 42355.950531006 20620994.77454
11543	20799626 3212 178680 180996 1778.5 1800 87 504.02648925781 785.82187652588 56497.770683289 37378223.824809
11554	20802838 2569 179148 180996 1782.5 1800 71 0.973 11.200708441096 234.50993356624 1283.1642592774
11553	20805407 2439 179148 180996 1782.5 1800 71 -1.2723693847656 2.5 33.002187728882 97.423639442222
11552	20807846 2653 179119 180996 1782.25 1800 72 5.6500000953674 15.02499961853 999.49069499969 14267.79745486
11551	20810499 2699 179090 180996 1782 1800 73 486.85000610352 486.85000610352 35540.050445557 17302673.776338
11550	20813198 2691 179090 180996 1782 1800 73 550.22045898438 795.46562957764 49821.385780334 34423206.223128
11561	20815889 2138 179437 180996 1785 1800 61 0.973 11.648172402475 214.06239061739 1341.5904314076
11560	20818027 2182 179437 180996 1785 1800 61 -2.059211730957 2.5 20.679346084595 134.00110278077
11559	20820209 2278 179408 180996 1784.75 1800 62 5.6500000953674 15.64999961853 838.67552280426 11760.882474459
11558	20822487 2330 179379 180996 1784.5 1800 63 483.14999389648 483.14999389648 30438.449615479 14706336.745937
11557	20824817 2310 179379 180996 1784.5 1800 63 184.17810058594 390.14486694336 17613.931915283 5192621.7714743
11568	20827127 2057 179586 180996 1786.25 1800 56 0.973 11.092432094837 212.12195328997 1234.5221322254
11567	20829184 2033 179586 180996 1786.25 1800 56 -4.5 2.5 34.236539840698 112.80684854856
11566	20831217 2098 179555 180996 1786 1800 57 5.6500000953674 14.873069763184 767.65448474884 10695.349727189
11565	20833315 2145 179524 180996 1785.75 1800 58 483.14999389648 483.14999389648 28022.699645996 13539167.162926
11564	20835460 2134 179524 180996 1785.75 1800 58 162.90466308594 350.11761474609 14374.186950684 3762271.5128696
11575	20837594 1842 179767 180996 1787.75 1800 50 2.0175877334682 11.200708441096 214.86403585617 1306.0103039542
11574	20839436 1775 179767 180996 1787.75 1800 50 -0.063034057617188 2.5 41.227766036987 94.890558831543
11573	20841211 1871 179736 180996 1787.5 1800 51 5.6500000953674 16.019826889038 718.56792640686 10587.854081802
11572	20843082 1924 179705 180996 1787.25 1800 52 486.85000610352 486.85000610352 25316.200317383 12325192.279036
11571	20845006 1921 179705 180996 1787.25 1800 52 611.50845336914 785.82187652588 36881.571983337 26314074.894099
11580	20846927 35 180996 180996 1800 1800 1 5.6500000953674 5.6500000953674 5.6500000953674 31.922501077652
11579	20846962 73 180972 180996 1799.75 1800 2 486.85000610352 486.85000610352 973.70001220703 474045.85688599
11578	20847035 73 180972 180996 1799.75 1800 2 785.82187652588 785.82187652588 1571.6437530518 1235032.0432533
7507	20847108 607 0 180995 0 1800 31 0 26 526 9788
7508	20847715 622 0 180995 0 1800 31 0 209 3236 469912
