version 2
run nodebug-20-20200606-00:26:16-5072
attr configname nodebug
attr datetime 20200606-00:26:16
attr experiment nodebug
attr inifile omnetpp.ini
attr iterationvars ""
attr iterationvars2 $repetition=20
attr measurement ""
attr network "\"org.car2x.veins.modules.application.ExtTraCIScenarioManagerLaunchd.IntersectionExampleScenario\""
attr processid 5072
attr repetition 20
attr replication #20
attr resultdir results
attr runnumber 20
attr seedset 20
param **.coreDebug false
param **.debug false
param *.**.nic.mac1609_4.bitrate 18Mbps
param *.**.nic.mac1609_4.txPower 20mW
param *.**.nic.mac1609_4.useServiceChannel false
param *.**.nic.phy80211p.analogueModels "xmldoc(\"config.xml\")"
param *.**.nic.phy80211p.decider "xmldoc(\"config.xml\")"
param *.**.nic.phy80211p.sensitivity -89dBm
param *.**.nic.phy80211p.thermalNoise -110dBm
param *.**.nic.phy80211p.usePropagationDelay true
param *.**.nic.phy80211p.useThermalNoise true
param *.annotations.draw false
param *.connectionManager.alpha 2.0
param *.connectionManager.carrierFrequency "5.890e9 Hz"
param *.connectionManager.pMax 20mW
param *.connectionManager.sat -89dBm
param *.connectionManager.sendDirect true
param *.manager.autoShutdown true
param *.manager.host "\"localhost\""
param *.manager.launchConfig "xmldoc(\"paramics.launchd.xml\")"
param *.manager.margin 25
param *.manager.moduleDisplayString "\"\""
param *.manager.moduleName "\"node\""
param *.manager.moduleType "\"org.car2x.veins.nodes.Car\""
param *.manager.port 9999
param *.manager.updateInterval 250ms
param *.node[*0].veinsmobility.accidentCount 0
param *.node[*0].veinsmobility.accidentDuration 30s
param *.node[*0].veinsmobility.accidentStart 75s
param *.node[*].appl.LiderSelectZoneRadio 55.0
param *.node[*].appl.ShareDataZoneRadio 110.0
param *.node[*].appl.TiempoSemaforo 30.0
param *.node[*].appl.beaconInterval 1s
param *.node[*].appl.beaconPriority 3
param *.node[*].appl.dataOnSch false
param *.node[*].appl.dataPriority 2
param *.node[*].appl.debug false
param *.node[*].appl.headerLength "256 bit"
param *.node[*].appl.maxOffset 0.005s
param *.node[*].appl.sendBeacons false
param *.node[*].appl.sendData true
param *.node[*].applType "\"Dummy\""
param *.node[*].mobilityType "\"TraCIMobility\""
param *.node[*].mobilityType.debug true
param *.node[*].veinsmobility.x 0
param *.node[*].veinsmobility.y 0
param *.node[*].veinsmobility.z 1.895
param *.node[*].veinsmobilityType "\"org.car2x.veins.modules.mobility.traci.TraCIMobility\""
param *.node[*].veinsmobilityType.debug true
param *.playgroundSizeX 8500m
param *.playgroundSizeY 8500m
param *.playgroundSizeZ 50m
param *.world.use2D false
param *.world.useTorus false

scalar IntersectionExampleScenario.node[0].appl 	VehicleRemoved 	0
scalar IntersectionExampleScenario.node[0].appl 	ArrivedAtDest 	1
scalar IntersectionExampleScenario.node[0].appl 	IntersectionEnterTime 	1
scalar IntersectionExampleScenario.node[0].appl 	IntersectionExitTime 	23.851979684347
scalar IntersectionExampleScenario.node[0].appl 	NumberOfCollisions 	0
scalar IntersectionExampleScenario.node[0].nic.phy80211p 	busyTime 	0
scalar IntersectionExampleScenario.node[0].nic.mac1609_4 	ReceivedUnicastPackets 	0
scalar IntersectionExampleScenario.node[0].nic.mac1609_4 	ReceivedBroadcasts 	0
scalar IntersectionExampleScenario.node[0].nic.mac1609_4 	SentPackets 	0
scalar IntersectionExampleScenario.node[0].nic.mac1609_4 	SNIRLostPackets 	0
scalar IntersectionExampleScenario.node[0].nic.mac1609_4 	RXTXLostPackets 	0
scalar IntersectionExampleScenario.node[0].nic.mac1609_4 	TotalLostPackets 	0
scalar IntersectionExampleScenario.node[0].nic.mac1609_4 	DroppedPacketsInMac 	0
scalar IntersectionExampleScenario.node[0].nic.mac1609_4 	TooLittleTime 	0
scalar IntersectionExampleScenario.node[0].nic.mac1609_4 	TimesIntoBackoff 	0
scalar IntersectionExampleScenario.node[0].nic.mac1609_4 	SlotsBackoff 	0
scalar IntersectionExampleScenario.node[0].nic.mac1609_4 	NumInternalContention 	0
scalar IntersectionExampleScenario.node[0].nic.mac1609_4 	totalBusyTime 	0
scalar IntersectionExampleScenario.node[0].veinsmobility 	startTime 	1
scalar IntersectionExampleScenario.node[0].veinsmobility 	totalTime 	38.75
scalar IntersectionExampleScenario.node[0].veinsmobility 	stopTime 	40
scalar IntersectionExampleScenario.node[0].veinsmobility 	minSpeed 	5.6500000953674
scalar IntersectionExampleScenario.node[0].veinsmobility 	maxSpeed 	15.64999961853
scalar IntersectionExampleScenario.node[0].veinsmobility 	totalDistance 	553.98722076416
scalar IntersectionExampleScenario.node[0].veinsmobility 	totalCO2Emission 	118.09265819258
scalar IntersectionExampleScenario.node[1].appl 	VehicleRemoved 	0
scalar IntersectionExampleScenario.node[1].appl 	ArrivedAtDest 	1
scalar IntersectionExampleScenario.node[1].appl 	IntersectionEnterTime 	2.5
scalar IntersectionExampleScenario.node[1].appl 	IntersectionExitTime 	25.564813868375
scalar IntersectionExampleScenario.node[1].appl 	NumberOfCollisions 	0
scalar IntersectionExampleScenario.node[1].nic.phy80211p 	busyTime 	0
scalar IntersectionExampleScenario.node[1].nic.mac1609_4 	ReceivedUnicastPackets 	0
scalar IntersectionExampleScenario.node[1].nic.mac1609_4 	ReceivedBroadcasts 	0
scalar IntersectionExampleScenario.node[1].nic.mac1609_4 	SentPackets 	0
scalar IntersectionExampleScenario.node[1].nic.mac1609_4 	SNIRLostPackets 	0
scalar IntersectionExampleScenario.node[1].nic.mac1609_4 	RXTXLostPackets 	0
scalar IntersectionExampleScenario.node[1].nic.mac1609_4 	TotalLostPackets 	0
scalar IntersectionExampleScenario.node[1].nic.mac1609_4 	DroppedPacketsInMac 	0
scalar IntersectionExampleScenario.node[1].nic.mac1609_4 	TooLittleTime 	0
scalar IntersectionExampleScenario.node[1].nic.mac1609_4 	TimesIntoBackoff 	0
scalar IntersectionExampleScenario.node[1].nic.mac1609_4 	SlotsBackoff 	0
scalar IntersectionExampleScenario.node[1].nic.mac1609_4 	NumInternalContention 	0
scalar IntersectionExampleScenario.node[1].nic.mac1609_4 	totalBusyTime 	0
scalar IntersectionExampleScenario.node[1].veinsmobility 	startTime 	2.5
scalar IntersectionExampleScenario.node[1].veinsmobility 	totalTime 	39
scalar IntersectionExampleScenario.node[1].veinsmobility 	stopTime 	41.75
scalar IntersectionExampleScenario.node[1].veinsmobility 	minSpeed 	5.6500000953674
scalar IntersectionExampleScenario.node[1].veinsmobility 	maxSpeed 	16
scalar IntersectionExampleScenario.node[1].veinsmobility 	totalDistance 	550.56552847072
scalar IntersectionExampleScenario.node[1].veinsmobility 	totalCO2Emission 	124.65551465587
scalar IntersectionExampleScenario.node[5].appl 	VehicleRemoved 	0
scalar IntersectionExampleScenario.node[5].appl 	ArrivedAtDest 	1
scalar IntersectionExampleScenario.node[5].appl 	IntersectionEnterTime 	23.75
scalar IntersectionExampleScenario.node[5].appl 	IntersectionExitTime 	48.522347565216
scalar IntersectionExampleScenario.node[5].appl 	NumberOfCollisions 	0
scalar IntersectionExampleScenario.node[5].nic.phy80211p 	busyTime 	0
scalar IntersectionExampleScenario.node[5].nic.mac1609_4 	ReceivedUnicastPackets 	0
scalar IntersectionExampleScenario.node[5].nic.mac1609_4 	ReceivedBroadcasts 	0
scalar IntersectionExampleScenario.node[5].nic.mac1609_4 	SentPackets 	0
scalar IntersectionExampleScenario.node[5].nic.mac1609_4 	SNIRLostPackets 	0
scalar IntersectionExampleScenario.node[5].nic.mac1609_4 	RXTXLostPackets 	0
scalar IntersectionExampleScenario.node[5].nic.mac1609_4 	TotalLostPackets 	0
scalar IntersectionExampleScenario.node[5].nic.mac1609_4 	DroppedPacketsInMac 	0
scalar IntersectionExampleScenario.node[5].nic.mac1609_4 	TooLittleTime 	0
scalar IntersectionExampleScenario.node[5].nic.mac1609_4 	TimesIntoBackoff 	0
scalar IntersectionExampleScenario.node[5].nic.mac1609_4 	SlotsBackoff 	0
scalar IntersectionExampleScenario.node[5].nic.mac1609_4 	NumInternalContention 	0
scalar IntersectionExampleScenario.node[5].nic.mac1609_4 	totalBusyTime 	0
scalar IntersectionExampleScenario.node[5].veinsmobility 	startTime 	23.75
scalar IntersectionExampleScenario.node[5].veinsmobility 	totalTime 	41.25
scalar IntersectionExampleScenario.node[5].veinsmobility 	stopTime 	65.25
scalar IntersectionExampleScenario.node[5].veinsmobility 	minSpeed 	5.6500000953674
scalar IntersectionExampleScenario.node[5].veinsmobility 	maxSpeed 	15.02499961853
scalar IntersectionExampleScenario.node[5].veinsmobility 	totalDistance 	552.09214782715
scalar IntersectionExampleScenario.node[5].veinsmobility 	totalCO2Emission 	123.84274259016
scalar IntersectionExampleScenario.node[7].appl 	VehicleRemoved 	0
scalar IntersectionExampleScenario.node[7].appl 	ArrivedAtDest 	1
scalar IntersectionExampleScenario.node[7].appl 	IntersectionEnterTime 	33
scalar IntersectionExampleScenario.node[7].appl 	IntersectionExitTime 	56.83134823927
scalar IntersectionExampleScenario.node[7].appl 	NumberOfCollisions 	0
scalar IntersectionExampleScenario.node[7].nic.phy80211p 	busyTime 	0
scalar IntersectionExampleScenario.node[7].nic.mac1609_4 	ReceivedUnicastPackets 	0
scalar IntersectionExampleScenario.node[7].nic.mac1609_4 	ReceivedBroadcasts 	0
scalar IntersectionExampleScenario.node[7].nic.mac1609_4 	SentPackets 	0
scalar IntersectionExampleScenario.node[7].nic.mac1609_4 	SNIRLostPackets 	0
scalar IntersectionExampleScenario.node[7].nic.mac1609_4 	RXTXLostPackets 	0
scalar IntersectionExampleScenario.node[7].nic.mac1609_4 	TotalLostPackets 	0
scalar IntersectionExampleScenario.node[7].nic.mac1609_4 	DroppedPacketsInMac 	0
scalar IntersectionExampleScenario.node[7].nic.mac1609_4 	TooLittleTime 	0
scalar IntersectionExampleScenario.node[7].nic.mac1609_4 	TimesIntoBackoff 	0
scalar IntersectionExampleScenario.node[7].nic.mac1609_4 	SlotsBackoff 	0
scalar IntersectionExampleScenario.node[7].nic.mac1609_4 	NumInternalContention 	0
scalar IntersectionExampleScenario.node[7].nic.mac1609_4 	totalBusyTime 	0
scalar IntersectionExampleScenario.node[7].veinsmobility 	startTime 	33
scalar IntersectionExampleScenario.node[7].veinsmobility 	totalTime 	40.5
scalar IntersectionExampleScenario.node[7].veinsmobility 	stopTime 	73.75
scalar IntersectionExampleScenario.node[7].veinsmobility 	minSpeed 	5.6500000953674
scalar IntersectionExampleScenario.node[7].veinsmobility 	maxSpeed 	15.375
scalar IntersectionExampleScenario.node[7].veinsmobility 	totalDistance 	552.24951995672
scalar IntersectionExampleScenario.node[7].veinsmobility 	totalCO2Emission 	120.3692903816
scalar IntersectionExampleScenario.node[9].appl 	VehicleRemoved 	0
scalar IntersectionExampleScenario.node[9].appl 	ArrivedAtDest 	1
scalar IntersectionExampleScenario.node[9].appl 	IntersectionEnterTime 	36.5
scalar IntersectionExampleScenario.node[9].appl 	IntersectionExitTime 	60.538813943916
scalar IntersectionExampleScenario.node[9].appl 	NumberOfCollisions 	0
scalar IntersectionExampleScenario.node[9].nic.phy80211p 	busyTime 	0
scalar IntersectionExampleScenario.node[9].nic.mac1609_4 	ReceivedUnicastPackets 	0
scalar IntersectionExampleScenario.node[9].nic.mac1609_4 	ReceivedBroadcasts 	0
scalar IntersectionExampleScenario.node[9].nic.mac1609_4 	SentPackets 	0
scalar IntersectionExampleScenario.node[9].nic.mac1609_4 	SNIRLostPackets 	0
scalar IntersectionExampleScenario.node[9].nic.mac1609_4 	RXTXLostPackets 	0
scalar IntersectionExampleScenario.node[9].nic.mac1609_4 	TotalLostPackets 	0
scalar IntersectionExampleScenario.node[9].nic.mac1609_4 	DroppedPacketsInMac 	0
scalar IntersectionExampleScenario.node[9].nic.mac1609_4 	TooLittleTime 	0
scalar IntersectionExampleScenario.node[9].nic.mac1609_4 	TimesIntoBackoff 	0
scalar IntersectionExampleScenario.node[9].nic.mac1609_4 	SlotsBackoff 	0
scalar IntersectionExampleScenario.node[9].nic.mac1609_4 	NumInternalContention 	0
scalar IntersectionExampleScenario.node[9].nic.mac1609_4 	totalBusyTime 	0
scalar IntersectionExampleScenario.node[9].veinsmobility 	startTime 	36.5
scalar IntersectionExampleScenario.node[9].veinsmobility 	totalTime 	40.75
scalar IntersectionExampleScenario.node[9].veinsmobility 	stopTime 	77.5
scalar IntersectionExampleScenario.node[9].veinsmobility 	minSpeed 	5.6500000953674
scalar IntersectionExampleScenario.node[9].veinsmobility 	maxSpeed 	15.301882743835
scalar IntersectionExampleScenario.node[9].veinsmobility 	totalDistance 	554.11174843248
scalar IntersectionExampleScenario.node[9].veinsmobility 	totalCO2Emission 	127.5179957659
scalar IntersectionExampleScenario.node[4].appl 	VehicleRemoved 	0
scalar IntersectionExampleScenario.node[4].appl 	ArrivedAtDest 	1
scalar IntersectionExampleScenario.node[4].appl 	IntersectionEnterTime 	19
scalar IntersectionExampleScenario.node[4].appl 	IntersectionExitTime 	63.281850751577
scalar IntersectionExampleScenario.node[4].appl 	NumberOfCollisions 	0
scalar IntersectionExampleScenario.node[4].nic.phy80211p 	busyTime 	0
scalar IntersectionExampleScenario.node[4].nic.mac1609_4 	ReceivedUnicastPackets 	0
scalar IntersectionExampleScenario.node[4].nic.mac1609_4 	ReceivedBroadcasts 	0
scalar IntersectionExampleScenario.node[4].nic.mac1609_4 	SentPackets 	0
scalar IntersectionExampleScenario.node[4].nic.mac1609_4 	SNIRLostPackets 	0
scalar IntersectionExampleScenario.node[4].nic.mac1609_4 	RXTXLostPackets 	0
scalar IntersectionExampleScenario.node[4].nic.mac1609_4 	TotalLostPackets 	0
scalar IntersectionExampleScenario.node[4].nic.mac1609_4 	DroppedPacketsInMac 	0
scalar IntersectionExampleScenario.node[4].nic.mac1609_4 	TooLittleTime 	0
scalar IntersectionExampleScenario.node[4].nic.mac1609_4 	TimesIntoBackoff 	0
scalar IntersectionExampleScenario.node[4].nic.mac1609_4 	SlotsBackoff 	0
scalar IntersectionExampleScenario.node[4].nic.mac1609_4 	NumInternalContention 	0
scalar IntersectionExampleScenario.node[4].nic.mac1609_4 	totalBusyTime 	0
scalar IntersectionExampleScenario.node[4].veinsmobility 	startTime 	19
scalar IntersectionExampleScenario.node[4].veinsmobility 	totalTime 	59.75
scalar IntersectionExampleScenario.node[4].veinsmobility 	stopTime 	79
scalar IntersectionExampleScenario.node[4].veinsmobility 	minSpeed 	0
scalar IntersectionExampleScenario.node[4].veinsmobility 	maxSpeed 	16.27499961853
scalar IntersectionExampleScenario.node[4].veinsmobility 	totalDistance 	551.020362854
scalar IntersectionExampleScenario.node[4].veinsmobility 	totalCO2Emission 	155.93045801569
scalar IntersectionExampleScenario.node[2].appl 	VehicleRemoved 	0
scalar IntersectionExampleScenario.node[2].appl 	ArrivedAtDest 	1
scalar IntersectionExampleScenario.node[2].appl 	IntersectionEnterTime 	13
scalar IntersectionExampleScenario.node[2].appl 	IntersectionExitTime 	63.58982574119
scalar IntersectionExampleScenario.node[2].appl 	NumberOfCollisions 	0
scalar IntersectionExampleScenario.node[2].nic.phy80211p 	busyTime 	0
scalar IntersectionExampleScenario.node[2].nic.mac1609_4 	ReceivedUnicastPackets 	0
scalar IntersectionExampleScenario.node[2].nic.mac1609_4 	ReceivedBroadcasts 	0
scalar IntersectionExampleScenario.node[2].nic.mac1609_4 	SentPackets 	0
scalar IntersectionExampleScenario.node[2].nic.mac1609_4 	SNIRLostPackets 	0
scalar IntersectionExampleScenario.node[2].nic.mac1609_4 	RXTXLostPackets 	0
scalar IntersectionExampleScenario.node[2].nic.mac1609_4 	TotalLostPackets 	0
scalar IntersectionExampleScenario.node[2].nic.mac1609_4 	DroppedPacketsInMac 	0
scalar IntersectionExampleScenario.node[2].nic.mac1609_4 	TooLittleTime 	0
scalar IntersectionExampleScenario.node[2].nic.mac1609_4 	TimesIntoBackoff 	0
scalar IntersectionExampleScenario.node[2].nic.mac1609_4 	SlotsBackoff 	0
scalar IntersectionExampleScenario.node[2].nic.mac1609_4 	NumInternalContention 	0
scalar IntersectionExampleScenario.node[2].nic.mac1609_4 	totalBusyTime 	0
scalar IntersectionExampleScenario.node[2].veinsmobility 	startTime 	13
scalar IntersectionExampleScenario.node[2].veinsmobility 	totalTime 	67
scalar IntersectionExampleScenario.node[2].veinsmobility 	stopTime 	80.25
scalar IntersectionExampleScenario.node[2].veinsmobility 	minSpeed 	0
scalar IntersectionExampleScenario.node[2].veinsmobility 	maxSpeed 	15.02499961853
scalar IntersectionExampleScenario.node[2].veinsmobility 	totalDistance 	553.2511138916
scalar IntersectionExampleScenario.node[2].veinsmobility 	totalCO2Emission 	154.56501311634
scalar IntersectionExampleScenario.node[3].appl 	VehicleRemoved 	0
scalar IntersectionExampleScenario.node[3].appl 	ArrivedAtDest 	1
scalar IntersectionExampleScenario.node[3].appl 	IntersectionEnterTime 	14
scalar IntersectionExampleScenario.node[3].appl 	IntersectionExitTime 	65.004583038361
scalar IntersectionExampleScenario.node[3].appl 	NumberOfCollisions 	0
scalar IntersectionExampleScenario.node[3].nic.phy80211p 	busyTime 	0
scalar IntersectionExampleScenario.node[3].nic.mac1609_4 	ReceivedUnicastPackets 	0
scalar IntersectionExampleScenario.node[3].nic.mac1609_4 	ReceivedBroadcasts 	0
scalar IntersectionExampleScenario.node[3].nic.mac1609_4 	SentPackets 	0
scalar IntersectionExampleScenario.node[3].nic.mac1609_4 	SNIRLostPackets 	0
scalar IntersectionExampleScenario.node[3].nic.mac1609_4 	RXTXLostPackets 	0
scalar IntersectionExampleScenario.node[3].nic.mac1609_4 	TotalLostPackets 	0
scalar IntersectionExampleScenario.node[3].nic.mac1609_4 	DroppedPacketsInMac 	0
scalar IntersectionExampleScenario.node[3].nic.mac1609_4 	TooLittleTime 	0
scalar IntersectionExampleScenario.node[3].nic.mac1609_4 	TimesIntoBackoff 	0
scalar IntersectionExampleScenario.node[3].nic.mac1609_4 	SlotsBackoff 	0
scalar IntersectionExampleScenario.node[3].nic.mac1609_4 	NumInternalContention 	0
scalar IntersectionExampleScenario.node[3].nic.mac1609_4 	totalBusyTime 	0
scalar IntersectionExampleScenario.node[3].veinsmobility 	startTime 	14
scalar IntersectionExampleScenario.node[3].veinsmobility 	totalTime 	67
scalar IntersectionExampleScenario.node[3].veinsmobility 	stopTime 	81.25
scalar IntersectionExampleScenario.node[3].veinsmobility 	minSpeed 	0
scalar IntersectionExampleScenario.node[3].veinsmobility 	maxSpeed 	16.342258453369
scalar IntersectionExampleScenario.node[3].veinsmobility 	totalDistance 	575.11090087891
scalar IntersectionExampleScenario.node[3].veinsmobility 	totalCO2Emission 	169.2811663598
scalar IntersectionExampleScenario.node[6].appl 	VehicleRemoved 	0
scalar IntersectionExampleScenario.node[6].appl 	ArrivedAtDest 	1
scalar IntersectionExampleScenario.node[6].appl 	IntersectionEnterTime 	28.75
scalar IntersectionExampleScenario.node[6].appl 	IntersectionExitTime 	67.104937240394
scalar IntersectionExampleScenario.node[6].appl 	NumberOfCollisions 	0
scalar IntersectionExampleScenario.node[6].nic.phy80211p 	busyTime 	0
scalar IntersectionExampleScenario.node[6].nic.mac1609_4 	ReceivedUnicastPackets 	0
scalar IntersectionExampleScenario.node[6].nic.mac1609_4 	ReceivedBroadcasts 	0
scalar IntersectionExampleScenario.node[6].nic.mac1609_4 	SentPackets 	0
scalar IntersectionExampleScenario.node[6].nic.mac1609_4 	SNIRLostPackets 	0
scalar IntersectionExampleScenario.node[6].nic.mac1609_4 	RXTXLostPackets 	0
scalar IntersectionExampleScenario.node[6].nic.mac1609_4 	TotalLostPackets 	0
scalar IntersectionExampleScenario.node[6].nic.mac1609_4 	DroppedPacketsInMac 	0
scalar IntersectionExampleScenario.node[6].nic.mac1609_4 	TooLittleTime 	0
scalar IntersectionExampleScenario.node[6].nic.mac1609_4 	TimesIntoBackoff 	0
scalar IntersectionExampleScenario.node[6].nic.mac1609_4 	SlotsBackoff 	0
scalar IntersectionExampleScenario.node[6].nic.mac1609_4 	NumInternalContention 	0
scalar IntersectionExampleScenario.node[6].nic.mac1609_4 	totalBusyTime 	0
scalar IntersectionExampleScenario.node[6].veinsmobility 	startTime 	28.75
scalar IntersectionExampleScenario.node[6].veinsmobility 	totalTime 	54
scalar IntersectionExampleScenario.node[6].veinsmobility 	stopTime 	83
scalar IntersectionExampleScenario.node[6].veinsmobility 	minSpeed 	0
scalar IntersectionExampleScenario.node[6].veinsmobility 	maxSpeed 	15.65710067749
scalar IntersectionExampleScenario.node[6].veinsmobility 	totalDistance 	553.92446899414
scalar IntersectionExampleScenario.node[6].veinsmobility 	totalCO2Emission 	146.23125837555
scalar IntersectionExampleScenario.node[8].appl 	VehicleRemoved 	0
scalar IntersectionExampleScenario.node[8].appl 	ArrivedAtDest 	1
scalar IntersectionExampleScenario.node[8].appl 	IntersectionEnterTime 	33.75
scalar IntersectionExampleScenario.node[8].appl 	IntersectionExitTime 	69.810123017029
scalar IntersectionExampleScenario.node[8].appl 	NumberOfCollisions 	0
scalar IntersectionExampleScenario.node[8].nic.phy80211p 	busyTime 	0
scalar IntersectionExampleScenario.node[8].nic.mac1609_4 	ReceivedUnicastPackets 	0
scalar IntersectionExampleScenario.node[8].nic.mac1609_4 	ReceivedBroadcasts 	0
scalar IntersectionExampleScenario.node[8].nic.mac1609_4 	SentPackets 	0
scalar IntersectionExampleScenario.node[8].nic.mac1609_4 	SNIRLostPackets 	0
scalar IntersectionExampleScenario.node[8].nic.mac1609_4 	RXTXLostPackets 	0
scalar IntersectionExampleScenario.node[8].nic.mac1609_4 	TotalLostPackets 	0
scalar IntersectionExampleScenario.node[8].nic.mac1609_4 	DroppedPacketsInMac 	0
scalar IntersectionExampleScenario.node[8].nic.mac1609_4 	TooLittleTime 	0
scalar IntersectionExampleScenario.node[8].nic.mac1609_4 	TimesIntoBackoff 	0
scalar IntersectionExampleScenario.node[8].nic.mac1609_4 	SlotsBackoff 	0
scalar IntersectionExampleScenario.node[8].nic.mac1609_4 	NumInternalContention 	0
scalar IntersectionExampleScenario.node[8].nic.mac1609_4 	totalBusyTime 	0
scalar IntersectionExampleScenario.node[8].veinsmobility 	startTime 	33.75
scalar IntersectionExampleScenario.node[8].veinsmobility 	totalTime 	53
scalar IntersectionExampleScenario.node[8].veinsmobility 	stopTime 	87
scalar IntersectionExampleScenario.node[8].veinsmobility 	minSpeed 	1.7390918731689
scalar IntersectionExampleScenario.node[8].veinsmobility 	maxSpeed 	15.02499961853
scalar IntersectionExampleScenario.node[8].veinsmobility 	totalDistance 	552.22645523411
scalar IntersectionExampleScenario.node[8].veinsmobility 	totalCO2Emission 	137.42053885982
scalar IntersectionExampleScenario.node[10].appl 	VehicleRemoved 	0
scalar IntersectionExampleScenario.node[10].appl 	ArrivedAtDest 	1
scalar IntersectionExampleScenario.node[10].appl 	IntersectionEnterTime 	41.25
scalar IntersectionExampleScenario.node[10].appl 	IntersectionExitTime 	71.834255207737
scalar IntersectionExampleScenario.node[10].appl 	NumberOfCollisions 	0
scalar IntersectionExampleScenario.node[10].nic.phy80211p 	busyTime 	0
scalar IntersectionExampleScenario.node[10].nic.mac1609_4 	ReceivedUnicastPackets 	0
scalar IntersectionExampleScenario.node[10].nic.mac1609_4 	ReceivedBroadcasts 	0
scalar IntersectionExampleScenario.node[10].nic.mac1609_4 	SentPackets 	0
scalar IntersectionExampleScenario.node[10].nic.mac1609_4 	SNIRLostPackets 	0
scalar IntersectionExampleScenario.node[10].nic.mac1609_4 	RXTXLostPackets 	0
scalar IntersectionExampleScenario.node[10].nic.mac1609_4 	TotalLostPackets 	0
scalar IntersectionExampleScenario.node[10].nic.mac1609_4 	DroppedPacketsInMac 	0
scalar IntersectionExampleScenario.node[10].nic.mac1609_4 	TooLittleTime 	0
scalar IntersectionExampleScenario.node[10].nic.mac1609_4 	TimesIntoBackoff 	0
scalar IntersectionExampleScenario.node[10].nic.mac1609_4 	SlotsBackoff 	0
scalar IntersectionExampleScenario.node[10].nic.mac1609_4 	NumInternalContention 	0
scalar IntersectionExampleScenario.node[10].nic.mac1609_4 	totalBusyTime 	0
scalar IntersectionExampleScenario.node[10].veinsmobility 	startTime 	41.25
scalar IntersectionExampleScenario.node[10].veinsmobility 	totalTime 	47.25
scalar IntersectionExampleScenario.node[10].veinsmobility 	stopTime 	88.75
scalar IntersectionExampleScenario.node[10].veinsmobility 	minSpeed 	2.8617188930511
scalar IntersectionExampleScenario.node[10].veinsmobility 	maxSpeed 	15.875
scalar IntersectionExampleScenario.node[10].veinsmobility 	totalDistance 	546.17861159061
scalar IntersectionExampleScenario.node[10].veinsmobility 	totalCO2Emission 	137.16715878033
scalar IntersectionExampleScenario.node[11].appl 	VehicleRemoved 	0
scalar IntersectionExampleScenario.node[11].appl 	ArrivedAtDest 	1
scalar IntersectionExampleScenario.node[11].appl 	IntersectionEnterTime 	53
scalar IntersectionExampleScenario.node[11].appl 	IntersectionExitTime 	75.786916876736
scalar IntersectionExampleScenario.node[11].appl 	NumberOfCollisions 	0
scalar IntersectionExampleScenario.node[11].nic.phy80211p 	busyTime 	0
scalar IntersectionExampleScenario.node[11].nic.mac1609_4 	ReceivedUnicastPackets 	0
scalar IntersectionExampleScenario.node[11].nic.mac1609_4 	ReceivedBroadcasts 	0
scalar IntersectionExampleScenario.node[11].nic.mac1609_4 	SentPackets 	0
scalar IntersectionExampleScenario.node[11].nic.mac1609_4 	SNIRLostPackets 	0
scalar IntersectionExampleScenario.node[11].nic.mac1609_4 	RXTXLostPackets 	0
scalar IntersectionExampleScenario.node[11].nic.mac1609_4 	TotalLostPackets 	0
scalar IntersectionExampleScenario.node[11].nic.mac1609_4 	DroppedPacketsInMac 	0
scalar IntersectionExampleScenario.node[11].nic.mac1609_4 	TooLittleTime 	0
scalar IntersectionExampleScenario.node[11].nic.mac1609_4 	TimesIntoBackoff 	0
scalar IntersectionExampleScenario.node[11].nic.mac1609_4 	SlotsBackoff 	0
scalar IntersectionExampleScenario.node[11].nic.mac1609_4 	NumInternalContention 	0
scalar IntersectionExampleScenario.node[11].nic.mac1609_4 	totalBusyTime 	0
scalar IntersectionExampleScenario.node[11].veinsmobility 	startTime 	53
scalar IntersectionExampleScenario.node[11].veinsmobility 	totalTime 	38.75
scalar IntersectionExampleScenario.node[11].veinsmobility 	stopTime 	92
scalar IntersectionExampleScenario.node[11].veinsmobility 	minSpeed 	5.6500000953674
scalar IntersectionExampleScenario.node[11].veinsmobility 	maxSpeed 	15.64999961853
scalar IntersectionExampleScenario.node[11].veinsmobility 	totalDistance 	553.11764526367
scalar IntersectionExampleScenario.node[11].veinsmobility 	totalCO2Emission 	121.30688413732
scalar IntersectionExampleScenario.node[16].appl 	VehicleRemoved 	0
scalar IntersectionExampleScenario.node[16].appl 	ArrivedAtDest 	1
scalar IntersectionExampleScenario.node[16].appl 	IntersectionEnterTime 	63.5
scalar IntersectionExampleScenario.node[16].appl 	IntersectionExitTime 	86.329244172462
scalar IntersectionExampleScenario.node[16].appl 	NumberOfCollisions 	0
scalar IntersectionExampleScenario.node[16].nic.phy80211p 	busyTime 	0
scalar IntersectionExampleScenario.node[16].nic.mac1609_4 	ReceivedUnicastPackets 	0
scalar IntersectionExampleScenario.node[16].nic.mac1609_4 	ReceivedBroadcasts 	0
scalar IntersectionExampleScenario.node[16].nic.mac1609_4 	SentPackets 	0
scalar IntersectionExampleScenario.node[16].nic.mac1609_4 	SNIRLostPackets 	0
scalar IntersectionExampleScenario.node[16].nic.mac1609_4 	RXTXLostPackets 	0
scalar IntersectionExampleScenario.node[16].nic.mac1609_4 	TotalLostPackets 	0
scalar IntersectionExampleScenario.node[16].nic.mac1609_4 	DroppedPacketsInMac 	0
scalar IntersectionExampleScenario.node[16].nic.mac1609_4 	TooLittleTime 	0
scalar IntersectionExampleScenario.node[16].nic.mac1609_4 	TimesIntoBackoff 	0
scalar IntersectionExampleScenario.node[16].nic.mac1609_4 	SlotsBackoff 	0
scalar IntersectionExampleScenario.node[16].nic.mac1609_4 	NumInternalContention 	0
scalar IntersectionExampleScenario.node[16].nic.mac1609_4 	totalBusyTime 	0
scalar IntersectionExampleScenario.node[16].veinsmobility 	startTime 	63.5
scalar IntersectionExampleScenario.node[16].veinsmobility 	totalTime 	38.75
scalar IntersectionExampleScenario.node[16].veinsmobility 	stopTime 	102.5
scalar IntersectionExampleScenario.node[16].veinsmobility 	minSpeed 	5.6500000953674
scalar IntersectionExampleScenario.node[16].veinsmobility 	maxSpeed 	15.64999961853
scalar IntersectionExampleScenario.node[16].veinsmobility 	totalDistance 	551.79831695557
scalar IntersectionExampleScenario.node[16].veinsmobility 	totalCO2Emission 	117.30374038964
scalar IntersectionExampleScenario.node[19].appl 	VehicleRemoved 	0
scalar IntersectionExampleScenario.node[19].appl 	ArrivedAtDest 	1
scalar IntersectionExampleScenario.node[19].appl 	IntersectionEnterTime 	65.25
scalar IntersectionExampleScenario.node[19].appl 	IntersectionExitTime 	94.286944078427
scalar IntersectionExampleScenario.node[19].appl 	NumberOfCollisions 	0
scalar IntersectionExampleScenario.node[19].nic.phy80211p 	busyTime 	0
scalar IntersectionExampleScenario.node[19].nic.mac1609_4 	ReceivedUnicastPackets 	0
scalar IntersectionExampleScenario.node[19].nic.mac1609_4 	ReceivedBroadcasts 	0
scalar IntersectionExampleScenario.node[19].nic.mac1609_4 	SentPackets 	0
scalar IntersectionExampleScenario.node[19].nic.mac1609_4 	SNIRLostPackets 	0
scalar IntersectionExampleScenario.node[19].nic.mac1609_4 	RXTXLostPackets 	0
scalar IntersectionExampleScenario.node[19].nic.mac1609_4 	TotalLostPackets 	0
scalar IntersectionExampleScenario.node[19].nic.mac1609_4 	DroppedPacketsInMac 	0
scalar IntersectionExampleScenario.node[19].nic.mac1609_4 	TooLittleTime 	0
scalar IntersectionExampleScenario.node[19].nic.mac1609_4 	TimesIntoBackoff 	0
scalar IntersectionExampleScenario.node[19].nic.mac1609_4 	SlotsBackoff 	0
scalar IntersectionExampleScenario.node[19].nic.mac1609_4 	NumInternalContention 	0
scalar IntersectionExampleScenario.node[19].nic.mac1609_4 	totalBusyTime 	0
scalar IntersectionExampleScenario.node[19].veinsmobility 	startTime 	65.25
scalar IntersectionExampleScenario.node[19].veinsmobility 	totalTime 	45.75
scalar IntersectionExampleScenario.node[19].veinsmobility 	stopTime 	111.25
scalar IntersectionExampleScenario.node[19].veinsmobility 	minSpeed 	0
scalar IntersectionExampleScenario.node[19].veinsmobility 	maxSpeed 	14.75
scalar IntersectionExampleScenario.node[19].veinsmobility 	totalDistance 	551.7658996582
scalar IntersectionExampleScenario.node[19].veinsmobility 	totalCO2Emission 	131.80393691509
scalar IntersectionExampleScenario.node[21].appl 	VehicleRemoved 	0
scalar IntersectionExampleScenario.node[21].appl 	ArrivedAtDest 	1
scalar IntersectionExampleScenario.node[21].appl 	IntersectionEnterTime 	73.25
scalar IntersectionExampleScenario.node[21].appl 	IntersectionExitTime 	97.114329747652
scalar IntersectionExampleScenario.node[21].appl 	NumberOfCollisions 	0
scalar IntersectionExampleScenario.node[21].nic.phy80211p 	busyTime 	0
scalar IntersectionExampleScenario.node[21].nic.mac1609_4 	ReceivedUnicastPackets 	0
scalar IntersectionExampleScenario.node[21].nic.mac1609_4 	ReceivedBroadcasts 	0
scalar IntersectionExampleScenario.node[21].nic.mac1609_4 	SentPackets 	0
scalar IntersectionExampleScenario.node[21].nic.mac1609_4 	SNIRLostPackets 	0
scalar IntersectionExampleScenario.node[21].nic.mac1609_4 	RXTXLostPackets 	0
scalar IntersectionExampleScenario.node[21].nic.mac1609_4 	TotalLostPackets 	0
scalar IntersectionExampleScenario.node[21].nic.mac1609_4 	DroppedPacketsInMac 	0
scalar IntersectionExampleScenario.node[21].nic.mac1609_4 	TooLittleTime 	0
scalar IntersectionExampleScenario.node[21].nic.mac1609_4 	TimesIntoBackoff 	0
scalar IntersectionExampleScenario.node[21].nic.mac1609_4 	SlotsBackoff 	0
scalar IntersectionExampleScenario.node[21].nic.mac1609_4 	NumInternalContention 	0
scalar IntersectionExampleScenario.node[21].nic.mac1609_4 	totalBusyTime 	0
scalar IntersectionExampleScenario.node[21].veinsmobility 	startTime 	73.25
scalar IntersectionExampleScenario.node[21].veinsmobility 	totalTime 	39.5
scalar IntersectionExampleScenario.node[21].veinsmobility 	stopTime 	113
scalar IntersectionExampleScenario.node[21].veinsmobility 	minSpeed 	5.6500000953674
scalar IntersectionExampleScenario.node[21].veinsmobility 	maxSpeed 	15.64999961853
scalar IntersectionExampleScenario.node[21].veinsmobility 	totalDistance 	552.71875
scalar IntersectionExampleScenario.node[21].veinsmobility 	totalCO2Emission 	127.69703918735
scalar IntersectionExampleScenario.node[25].appl 	VehicleRemoved 	0
scalar IntersectionExampleScenario.node[25].appl 	ArrivedAtDest 	1
scalar IntersectionExampleScenario.node[25].appl 	IntersectionEnterTime 	83.25
scalar IntersectionExampleScenario.node[25].appl 	IntersectionExitTime 	106.04429324475
scalar IntersectionExampleScenario.node[25].appl 	NumberOfCollisions 	0
scalar IntersectionExampleScenario.node[25].nic.phy80211p 	busyTime 	0
scalar IntersectionExampleScenario.node[25].nic.mac1609_4 	ReceivedUnicastPackets 	0
scalar IntersectionExampleScenario.node[25].nic.mac1609_4 	ReceivedBroadcasts 	0
scalar IntersectionExampleScenario.node[25].nic.mac1609_4 	SentPackets 	0
scalar IntersectionExampleScenario.node[25].nic.mac1609_4 	SNIRLostPackets 	0
scalar IntersectionExampleScenario.node[25].nic.mac1609_4 	RXTXLostPackets 	0
scalar IntersectionExampleScenario.node[25].nic.mac1609_4 	TotalLostPackets 	0
scalar IntersectionExampleScenario.node[25].nic.mac1609_4 	DroppedPacketsInMac 	0
scalar IntersectionExampleScenario.node[25].nic.mac1609_4 	TooLittleTime 	0
scalar IntersectionExampleScenario.node[25].nic.mac1609_4 	TimesIntoBackoff 	0
scalar IntersectionExampleScenario.node[25].nic.mac1609_4 	SlotsBackoff 	0
scalar IntersectionExampleScenario.node[25].nic.mac1609_4 	NumInternalContention 	0
scalar IntersectionExampleScenario.node[25].nic.mac1609_4 	totalBusyTime 	0
scalar IntersectionExampleScenario.node[25].veinsmobility 	startTime 	83.25
scalar IntersectionExampleScenario.node[25].veinsmobility 	totalTime 	38.75
scalar IntersectionExampleScenario.node[25].veinsmobility 	stopTime 	122.25
scalar IntersectionExampleScenario.node[25].veinsmobility 	minSpeed 	5.6500000953674
scalar IntersectionExampleScenario.node[25].veinsmobility 	maxSpeed 	16.27499961853
scalar IntersectionExampleScenario.node[25].veinsmobility 	totalDistance 	550.98493231439
scalar IntersectionExampleScenario.node[25].veinsmobility 	totalCO2Emission 	125.76508042335
scalar IntersectionExampleScenario.node[12].appl 	VehicleRemoved 	0
scalar IntersectionExampleScenario.node[12].appl 	ArrivedAtDest 	1
scalar IntersectionExampleScenario.node[12].appl 	IntersectionEnterTime 	55.25
scalar IntersectionExampleScenario.node[12].appl 	IntersectionExitTime 	107.54649437268
scalar IntersectionExampleScenario.node[12].appl 	NumberOfCollisions 	0
scalar IntersectionExampleScenario.node[12].nic.phy80211p 	busyTime 	0
scalar IntersectionExampleScenario.node[12].nic.mac1609_4 	ReceivedUnicastPackets 	0
scalar IntersectionExampleScenario.node[12].nic.mac1609_4 	ReceivedBroadcasts 	0
scalar IntersectionExampleScenario.node[12].nic.mac1609_4 	SentPackets 	0
scalar IntersectionExampleScenario.node[12].nic.mac1609_4 	SNIRLostPackets 	0
scalar IntersectionExampleScenario.node[12].nic.mac1609_4 	RXTXLostPackets 	0
scalar IntersectionExampleScenario.node[12].nic.mac1609_4 	TotalLostPackets 	0
scalar IntersectionExampleScenario.node[12].nic.mac1609_4 	DroppedPacketsInMac 	0
scalar IntersectionExampleScenario.node[12].nic.mac1609_4 	TooLittleTime 	0
scalar IntersectionExampleScenario.node[12].nic.mac1609_4 	TimesIntoBackoff 	0
scalar IntersectionExampleScenario.node[12].nic.mac1609_4 	SlotsBackoff 	0
scalar IntersectionExampleScenario.node[12].nic.mac1609_4 	NumInternalContention 	0
scalar IntersectionExampleScenario.node[12].nic.mac1609_4 	totalBusyTime 	0
scalar IntersectionExampleScenario.node[12].veinsmobility 	startTime 	55.25
scalar IntersectionExampleScenario.node[12].veinsmobility 	totalTime 	68.5
scalar IntersectionExampleScenario.node[12].veinsmobility 	stopTime 	124
scalar IntersectionExampleScenario.node[12].veinsmobility 	minSpeed 	0
scalar IntersectionExampleScenario.node[12].veinsmobility 	maxSpeed 	15.910711288452
scalar IntersectionExampleScenario.node[12].veinsmobility 	totalDistance 	559.32451535613
scalar IntersectionExampleScenario.node[12].veinsmobility 	totalCO2Emission 	167.64462690508
scalar IntersectionExampleScenario.node[18].appl 	VehicleRemoved 	0
scalar IntersectionExampleScenario.node[18].appl 	ArrivedAtDest 	1
scalar IntersectionExampleScenario.node[18].appl 	IntersectionEnterTime 	65.25
scalar IntersectionExampleScenario.node[18].appl 	IntersectionExitTime 	107.51264779788
scalar IntersectionExampleScenario.node[18].appl 	NumberOfCollisions 	0
scalar IntersectionExampleScenario.node[18].nic.phy80211p 	busyTime 	0
scalar IntersectionExampleScenario.node[18].nic.mac1609_4 	ReceivedUnicastPackets 	0
scalar IntersectionExampleScenario.node[18].nic.mac1609_4 	ReceivedBroadcasts 	0
scalar IntersectionExampleScenario.node[18].nic.mac1609_4 	SentPackets 	0
scalar IntersectionExampleScenario.node[18].nic.mac1609_4 	SNIRLostPackets 	0
scalar IntersectionExampleScenario.node[18].nic.mac1609_4 	RXTXLostPackets 	0
scalar IntersectionExampleScenario.node[18].nic.mac1609_4 	TotalLostPackets 	0
scalar IntersectionExampleScenario.node[18].nic.mac1609_4 	DroppedPacketsInMac 	0
scalar IntersectionExampleScenario.node[18].nic.mac1609_4 	TooLittleTime 	0
scalar IntersectionExampleScenario.node[18].nic.mac1609_4 	TimesIntoBackoff 	0
scalar IntersectionExampleScenario.node[18].nic.mac1609_4 	SlotsBackoff 	0
scalar IntersectionExampleScenario.node[18].nic.mac1609_4 	NumInternalContention 	0
scalar IntersectionExampleScenario.node[18].nic.mac1609_4 	totalBusyTime 	0
scalar IntersectionExampleScenario.node[18].veinsmobility 	startTime 	65.25
scalar IntersectionExampleScenario.node[18].veinsmobility 	totalTime 	59
scalar IntersectionExampleScenario.node[18].veinsmobility 	stopTime 	124.5
scalar IntersectionExampleScenario.node[18].veinsmobility 	minSpeed 	0
scalar IntersectionExampleScenario.node[18].veinsmobility 	maxSpeed 	15.359257698059
scalar IntersectionExampleScenario.node[18].veinsmobility 	totalDistance 	513.13497067839
scalar IntersectionExampleScenario.node[18].veinsmobility 	totalCO2Emission 	147.68056403847
scalar IntersectionExampleScenario.node[13].appl 	VehicleRemoved 	0
scalar IntersectionExampleScenario.node[13].appl 	ArrivedAtDest 	1
scalar IntersectionExampleScenario.node[13].appl 	IntersectionEnterTime 	58.75
scalar IntersectionExampleScenario.node[13].appl 	IntersectionExitTime 	110.02448177797
scalar IntersectionExampleScenario.node[13].appl 	NumberOfCollisions 	0
scalar IntersectionExampleScenario.node[13].nic.phy80211p 	busyTime 	0
scalar IntersectionExampleScenario.node[13].nic.mac1609_4 	ReceivedUnicastPackets 	0
scalar IntersectionExampleScenario.node[13].nic.mac1609_4 	ReceivedBroadcasts 	0
scalar IntersectionExampleScenario.node[13].nic.mac1609_4 	SentPackets 	0
scalar IntersectionExampleScenario.node[13].nic.mac1609_4 	SNIRLostPackets 	0
scalar IntersectionExampleScenario.node[13].nic.mac1609_4 	RXTXLostPackets 	0
scalar IntersectionExampleScenario.node[13].nic.mac1609_4 	TotalLostPackets 	0
scalar IntersectionExampleScenario.node[13].nic.mac1609_4 	DroppedPacketsInMac 	0
scalar IntersectionExampleScenario.node[13].nic.mac1609_4 	TooLittleTime 	0
scalar IntersectionExampleScenario.node[13].nic.mac1609_4 	TimesIntoBackoff 	0
scalar IntersectionExampleScenario.node[13].nic.mac1609_4 	SlotsBackoff 	0
scalar IntersectionExampleScenario.node[13].nic.mac1609_4 	NumInternalContention 	0
scalar IntersectionExampleScenario.node[13].nic.mac1609_4 	totalBusyTime 	0
scalar IntersectionExampleScenario.node[13].veinsmobility 	startTime 	58.75
scalar IntersectionExampleScenario.node[13].veinsmobility 	totalTime 	68
scalar IntersectionExampleScenario.node[13].veinsmobility 	stopTime 	127
scalar IntersectionExampleScenario.node[13].veinsmobility 	minSpeed 	0
scalar IntersectionExampleScenario.node[13].veinsmobility 	maxSpeed 	15.267984390259
scalar IntersectionExampleScenario.node[13].veinsmobility 	totalDistance 	561.47177608052
scalar IntersectionExampleScenario.node[13].veinsmobility 	totalCO2Emission 	158.87036998773
scalar IntersectionExampleScenario.node[15].appl 	VehicleRemoved 	0
scalar IntersectionExampleScenario.node[15].appl 	ArrivedAtDest 	1
scalar IntersectionExampleScenario.node[15].appl 	IntersectionEnterTime 	63.5
scalar IntersectionExampleScenario.node[15].appl 	IntersectionExitTime 	110.55693681978
scalar IntersectionExampleScenario.node[15].appl 	NumberOfCollisions 	0
scalar IntersectionExampleScenario.node[15].nic.phy80211p 	busyTime 	0
scalar IntersectionExampleScenario.node[15].nic.mac1609_4 	ReceivedUnicastPackets 	0
scalar IntersectionExampleScenario.node[15].nic.mac1609_4 	ReceivedBroadcasts 	0
scalar IntersectionExampleScenario.node[15].nic.mac1609_4 	SentPackets 	0
scalar IntersectionExampleScenario.node[15].nic.mac1609_4 	SNIRLostPackets 	0
scalar IntersectionExampleScenario.node[15].nic.mac1609_4 	RXTXLostPackets 	0
scalar IntersectionExampleScenario.node[15].nic.mac1609_4 	TotalLostPackets 	0
scalar IntersectionExampleScenario.node[15].nic.mac1609_4 	DroppedPacketsInMac 	0
scalar IntersectionExampleScenario.node[15].nic.mac1609_4 	TooLittleTime 	0
scalar IntersectionExampleScenario.node[15].nic.mac1609_4 	TimesIntoBackoff 	0
scalar IntersectionExampleScenario.node[15].nic.mac1609_4 	SlotsBackoff 	0
scalar IntersectionExampleScenario.node[15].nic.mac1609_4 	NumInternalContention 	0
scalar IntersectionExampleScenario.node[15].nic.mac1609_4 	totalBusyTime 	0
scalar IntersectionExampleScenario.node[15].veinsmobility 	startTime 	63.5
scalar IntersectionExampleScenario.node[15].veinsmobility 	totalTime 	64
scalar IntersectionExampleScenario.node[15].veinsmobility 	stopTime 	127.75
scalar IntersectionExampleScenario.node[15].veinsmobility 	minSpeed 	0
scalar IntersectionExampleScenario.node[15].veinsmobility 	maxSpeed 	15.25
scalar IntersectionExampleScenario.node[15].veinsmobility 	totalDistance 	544.25990597707
scalar IntersectionExampleScenario.node[15].veinsmobility 	totalCO2Emission 	158.72253035013
scalar IntersectionExampleScenario.node[14].appl 	VehicleRemoved 	0
scalar IntersectionExampleScenario.node[14].appl 	ArrivedAtDest 	1
scalar IntersectionExampleScenario.node[14].appl 	IntersectionEnterTime 	59
scalar IntersectionExampleScenario.node[14].appl 	IntersectionExitTime 	112.02005933962
scalar IntersectionExampleScenario.node[14].appl 	NumberOfCollisions 	0
scalar IntersectionExampleScenario.node[14].nic.phy80211p 	busyTime 	0
scalar IntersectionExampleScenario.node[14].nic.mac1609_4 	ReceivedUnicastPackets 	0
scalar IntersectionExampleScenario.node[14].nic.mac1609_4 	ReceivedBroadcasts 	0
scalar IntersectionExampleScenario.node[14].nic.mac1609_4 	SentPackets 	0
scalar IntersectionExampleScenario.node[14].nic.mac1609_4 	SNIRLostPackets 	0
scalar IntersectionExampleScenario.node[14].nic.mac1609_4 	RXTXLostPackets 	0
scalar IntersectionExampleScenario.node[14].nic.mac1609_4 	TotalLostPackets 	0
scalar IntersectionExampleScenario.node[14].nic.mac1609_4 	DroppedPacketsInMac 	0
scalar IntersectionExampleScenario.node[14].nic.mac1609_4 	TooLittleTime 	0
scalar IntersectionExampleScenario.node[14].nic.mac1609_4 	TimesIntoBackoff 	0
scalar IntersectionExampleScenario.node[14].nic.mac1609_4 	SlotsBackoff 	0
scalar IntersectionExampleScenario.node[14].nic.mac1609_4 	NumInternalContention 	0
scalar IntersectionExampleScenario.node[14].nic.mac1609_4 	totalBusyTime 	0
scalar IntersectionExampleScenario.node[14].veinsmobility 	startTime 	59
scalar IntersectionExampleScenario.node[14].veinsmobility 	totalTime 	69
scalar IntersectionExampleScenario.node[14].veinsmobility 	stopTime 	128.25
scalar IntersectionExampleScenario.node[14].veinsmobility 	minSpeed 	0
scalar IntersectionExampleScenario.node[14].veinsmobility 	maxSpeed 	16.123365402222
scalar IntersectionExampleScenario.node[14].veinsmobility 	totalDistance 	577.26258631556
scalar IntersectionExampleScenario.node[14].veinsmobility 	totalCO2Emission 	172.85076587685
scalar IntersectionExampleScenario.node[17].appl 	VehicleRemoved 	0
scalar IntersectionExampleScenario.node[17].appl 	ArrivedAtDest 	1
scalar IntersectionExampleScenario.node[17].appl 	IntersectionEnterTime 	64.25
scalar IntersectionExampleScenario.node[17].appl 	IntersectionExitTime 	112.79507019397
scalar IntersectionExampleScenario.node[17].appl 	NumberOfCollisions 	0
scalar IntersectionExampleScenario.node[17].nic.phy80211p 	busyTime 	0
scalar IntersectionExampleScenario.node[17].nic.mac1609_4 	ReceivedUnicastPackets 	0
scalar IntersectionExampleScenario.node[17].nic.mac1609_4 	ReceivedBroadcasts 	0
scalar IntersectionExampleScenario.node[17].nic.mac1609_4 	SentPackets 	0
scalar IntersectionExampleScenario.node[17].nic.mac1609_4 	SNIRLostPackets 	0
scalar IntersectionExampleScenario.node[17].nic.mac1609_4 	RXTXLostPackets 	0
scalar IntersectionExampleScenario.node[17].nic.mac1609_4 	TotalLostPackets 	0
scalar IntersectionExampleScenario.node[17].nic.mac1609_4 	DroppedPacketsInMac 	0
scalar IntersectionExampleScenario.node[17].nic.mac1609_4 	TooLittleTime 	0
scalar IntersectionExampleScenario.node[17].nic.mac1609_4 	TimesIntoBackoff 	0
scalar IntersectionExampleScenario.node[17].nic.mac1609_4 	SlotsBackoff 	0
scalar IntersectionExampleScenario.node[17].nic.mac1609_4 	NumInternalContention 	0
scalar IntersectionExampleScenario.node[17].nic.mac1609_4 	totalBusyTime 	0
scalar IntersectionExampleScenario.node[17].veinsmobility 	startTime 	64.25
scalar IntersectionExampleScenario.node[17].veinsmobility 	totalTime 	64.75
scalar IntersectionExampleScenario.node[17].veinsmobility 	stopTime 	129.25
scalar IntersectionExampleScenario.node[17].veinsmobility 	minSpeed 	0
scalar IntersectionExampleScenario.node[17].veinsmobility 	maxSpeed 	15.735486984253
scalar IntersectionExampleScenario.node[17].veinsmobility 	totalDistance 	566.44198290655
scalar IntersectionExampleScenario.node[17].veinsmobility 	totalCO2Emission 	163.89279838253
scalar IntersectionExampleScenario.node[23].appl 	VehicleRemoved 	0
scalar IntersectionExampleScenario.node[23].appl 	ArrivedAtDest 	1
scalar IntersectionExampleScenario.node[23].appl 	IntersectionEnterTime 	81
scalar IntersectionExampleScenario.node[23].appl 	IntersectionExitTime 	113.86137600668
scalar IntersectionExampleScenario.node[23].appl 	NumberOfCollisions 	0
scalar IntersectionExampleScenario.node[23].nic.phy80211p 	busyTime 	0
scalar IntersectionExampleScenario.node[23].nic.mac1609_4 	ReceivedUnicastPackets 	0
scalar IntersectionExampleScenario.node[23].nic.mac1609_4 	ReceivedBroadcasts 	0
scalar IntersectionExampleScenario.node[23].nic.mac1609_4 	SentPackets 	0
scalar IntersectionExampleScenario.node[23].nic.mac1609_4 	SNIRLostPackets 	0
scalar IntersectionExampleScenario.node[23].nic.mac1609_4 	RXTXLostPackets 	0
scalar IntersectionExampleScenario.node[23].nic.mac1609_4 	TotalLostPackets 	0
scalar IntersectionExampleScenario.node[23].nic.mac1609_4 	DroppedPacketsInMac 	0
scalar IntersectionExampleScenario.node[23].nic.mac1609_4 	TooLittleTime 	0
scalar IntersectionExampleScenario.node[23].nic.mac1609_4 	TimesIntoBackoff 	0
scalar IntersectionExampleScenario.node[23].nic.mac1609_4 	SlotsBackoff 	0
scalar IntersectionExampleScenario.node[23].nic.mac1609_4 	NumInternalContention 	0
scalar IntersectionExampleScenario.node[23].nic.mac1609_4 	totalBusyTime 	0
scalar IntersectionExampleScenario.node[23].veinsmobility 	startTime 	81
scalar IntersectionExampleScenario.node[23].veinsmobility 	totalTime 	48.25
scalar IntersectionExampleScenario.node[23].veinsmobility 	stopTime 	129.5
scalar IntersectionExampleScenario.node[23].veinsmobility 	minSpeed 	2.2518229484558
scalar IntersectionExampleScenario.node[23].veinsmobility 	maxSpeed 	16.27499961853
scalar IntersectionExampleScenario.node[23].veinsmobility 	totalDistance 	552.26463317871
scalar IntersectionExampleScenario.node[23].veinsmobility 	totalCO2Emission 	141.22985202828
scalar IntersectionExampleScenario.node[22].appl 	VehicleRemoved 	0
scalar IntersectionExampleScenario.node[22].appl 	ArrivedAtDest 	1
scalar IntersectionExampleScenario.node[22].appl 	IntersectionEnterTime 	74.25
scalar IntersectionExampleScenario.node[22].appl 	IntersectionExitTime 	114.84444044935
scalar IntersectionExampleScenario.node[22].appl 	NumberOfCollisions 	0
scalar IntersectionExampleScenario.node[22].nic.phy80211p 	busyTime 	0
scalar IntersectionExampleScenario.node[22].nic.mac1609_4 	ReceivedUnicastPackets 	0
scalar IntersectionExampleScenario.node[22].nic.mac1609_4 	ReceivedBroadcasts 	0
scalar IntersectionExampleScenario.node[22].nic.mac1609_4 	SentPackets 	0
scalar IntersectionExampleScenario.node[22].nic.mac1609_4 	SNIRLostPackets 	0
scalar IntersectionExampleScenario.node[22].nic.mac1609_4 	RXTXLostPackets 	0
scalar IntersectionExampleScenario.node[22].nic.mac1609_4 	TotalLostPackets 	0
scalar IntersectionExampleScenario.node[22].nic.mac1609_4 	DroppedPacketsInMac 	0
scalar IntersectionExampleScenario.node[22].nic.mac1609_4 	TooLittleTime 	0
scalar IntersectionExampleScenario.node[22].nic.mac1609_4 	TimesIntoBackoff 	0
scalar IntersectionExampleScenario.node[22].nic.mac1609_4 	SlotsBackoff 	0
scalar IntersectionExampleScenario.node[22].nic.mac1609_4 	NumInternalContention 	0
scalar IntersectionExampleScenario.node[22].nic.mac1609_4 	totalBusyTime 	0
scalar IntersectionExampleScenario.node[22].veinsmobility 	startTime 	74.25
scalar IntersectionExampleScenario.node[22].veinsmobility 	totalTime 	56.25
scalar IntersectionExampleScenario.node[22].veinsmobility 	stopTime 	130.75
scalar IntersectionExampleScenario.node[22].veinsmobility 	minSpeed 	0
scalar IntersectionExampleScenario.node[22].veinsmobility 	maxSpeed 	15.64999961853
scalar IntersectionExampleScenario.node[22].veinsmobility 	totalDistance 	551.02561187744
scalar IntersectionExampleScenario.node[22].veinsmobility 	totalCO2Emission 	147.19998030363
scalar IntersectionExampleScenario.node[24].appl 	VehicleRemoved 	0
scalar IntersectionExampleScenario.node[24].appl 	ArrivedAtDest 	1
scalar IntersectionExampleScenario.node[24].appl 	IntersectionEnterTime 	82.25
scalar IntersectionExampleScenario.node[24].appl 	IntersectionExitTime 	117.34665704824
scalar IntersectionExampleScenario.node[24].appl 	NumberOfCollisions 	0
scalar IntersectionExampleScenario.node[24].nic.phy80211p 	busyTime 	0
scalar IntersectionExampleScenario.node[24].nic.mac1609_4 	ReceivedUnicastPackets 	0
scalar IntersectionExampleScenario.node[24].nic.mac1609_4 	ReceivedBroadcasts 	0
scalar IntersectionExampleScenario.node[24].nic.mac1609_4 	SentPackets 	0
scalar IntersectionExampleScenario.node[24].nic.mac1609_4 	SNIRLostPackets 	0
scalar IntersectionExampleScenario.node[24].nic.mac1609_4 	RXTXLostPackets 	0
scalar IntersectionExampleScenario.node[24].nic.mac1609_4 	TotalLostPackets 	0
scalar IntersectionExampleScenario.node[24].nic.mac1609_4 	DroppedPacketsInMac 	0
scalar IntersectionExampleScenario.node[24].nic.mac1609_4 	TooLittleTime 	0
scalar IntersectionExampleScenario.node[24].nic.mac1609_4 	TimesIntoBackoff 	0
scalar IntersectionExampleScenario.node[24].nic.mac1609_4 	SlotsBackoff 	0
scalar IntersectionExampleScenario.node[24].nic.mac1609_4 	NumInternalContention 	0
scalar IntersectionExampleScenario.node[24].nic.mac1609_4 	totalBusyTime 	0
scalar IntersectionExampleScenario.node[24].veinsmobility 	startTime 	82.25
scalar IntersectionExampleScenario.node[24].veinsmobility 	totalTime 	52.25
scalar IntersectionExampleScenario.node[24].veinsmobility 	stopTime 	134.75
scalar IntersectionExampleScenario.node[24].veinsmobility 	minSpeed 	1.1717765331268
scalar IntersectionExampleScenario.node[24].veinsmobility 	maxSpeed 	15.02499961853
scalar IntersectionExampleScenario.node[24].veinsmobility 	totalDistance 	543.70791533271
scalar IntersectionExampleScenario.node[24].veinsmobility 	totalCO2Emission 	136.39366100121
scalar IntersectionExampleScenario.node[20].appl 	VehicleRemoved 	0
scalar IntersectionExampleScenario.node[20].appl 	ArrivedAtDest 	1
scalar IntersectionExampleScenario.node[20].appl 	IntersectionEnterTime 	72.25
scalar IntersectionExampleScenario.node[20].appl 	IntersectionExitTime 	124.28740898508
scalar IntersectionExampleScenario.node[20].appl 	NumberOfCollisions 	0
scalar IntersectionExampleScenario.node[20].nic.phy80211p 	busyTime 	0
scalar IntersectionExampleScenario.node[20].nic.mac1609_4 	ReceivedUnicastPackets 	0
scalar IntersectionExampleScenario.node[20].nic.mac1609_4 	ReceivedBroadcasts 	0
scalar IntersectionExampleScenario.node[20].nic.mac1609_4 	SentPackets 	0
scalar IntersectionExampleScenario.node[20].nic.mac1609_4 	SNIRLostPackets 	0
scalar IntersectionExampleScenario.node[20].nic.mac1609_4 	RXTXLostPackets 	0
scalar IntersectionExampleScenario.node[20].nic.mac1609_4 	TotalLostPackets 	0
scalar IntersectionExampleScenario.node[20].nic.mac1609_4 	DroppedPacketsInMac 	0
scalar IntersectionExampleScenario.node[20].nic.mac1609_4 	TooLittleTime 	0
scalar IntersectionExampleScenario.node[20].nic.mac1609_4 	TimesIntoBackoff 	0
scalar IntersectionExampleScenario.node[20].nic.mac1609_4 	SlotsBackoff 	0
scalar IntersectionExampleScenario.node[20].nic.mac1609_4 	NumInternalContention 	0
scalar IntersectionExampleScenario.node[20].nic.mac1609_4 	totalBusyTime 	0
scalar IntersectionExampleScenario.node[20].veinsmobility 	startTime 	72.25
scalar IntersectionExampleScenario.node[20].veinsmobility 	totalTime 	68.5
scalar IntersectionExampleScenario.node[20].veinsmobility 	stopTime 	141
scalar IntersectionExampleScenario.node[20].veinsmobility 	minSpeed 	0
scalar IntersectionExampleScenario.node[20].veinsmobility 	maxSpeed 	15.375
scalar IntersectionExampleScenario.node[20].veinsmobility 	totalDistance 	551.9021922504
scalar IntersectionExampleScenario.node[20].veinsmobility 	totalCO2Emission 	157.86575127104
scalar IntersectionExampleScenario.node[27].appl 	VehicleRemoved 	0
scalar IntersectionExampleScenario.node[27].appl 	ArrivedAtDest 	1
scalar IntersectionExampleScenario.node[27].appl 	IntersectionEnterTime 	96.25
scalar IntersectionExampleScenario.node[27].appl 	IntersectionExitTime 	125.8328506056
scalar IntersectionExampleScenario.node[27].appl 	NumberOfCollisions 	0
scalar IntersectionExampleScenario.node[27].nic.phy80211p 	busyTime 	0
scalar IntersectionExampleScenario.node[27].nic.mac1609_4 	ReceivedUnicastPackets 	0
scalar IntersectionExampleScenario.node[27].nic.mac1609_4 	ReceivedBroadcasts 	0
scalar IntersectionExampleScenario.node[27].nic.mac1609_4 	SentPackets 	0
scalar IntersectionExampleScenario.node[27].nic.mac1609_4 	SNIRLostPackets 	0
scalar IntersectionExampleScenario.node[27].nic.mac1609_4 	RXTXLostPackets 	0
scalar IntersectionExampleScenario.node[27].nic.mac1609_4 	TotalLostPackets 	0
scalar IntersectionExampleScenario.node[27].nic.mac1609_4 	DroppedPacketsInMac 	0
scalar IntersectionExampleScenario.node[27].nic.mac1609_4 	TooLittleTime 	0
scalar IntersectionExampleScenario.node[27].nic.mac1609_4 	TimesIntoBackoff 	0
scalar IntersectionExampleScenario.node[27].nic.mac1609_4 	SlotsBackoff 	0
scalar IntersectionExampleScenario.node[27].nic.mac1609_4 	NumInternalContention 	0
scalar IntersectionExampleScenario.node[27].nic.mac1609_4 	totalBusyTime 	0
scalar IntersectionExampleScenario.node[27].veinsmobility 	startTime 	96.25
scalar IntersectionExampleScenario.node[27].veinsmobility 	totalTime 	46.75
scalar IntersectionExampleScenario.node[27].veinsmobility 	stopTime 	143.25
scalar IntersectionExampleScenario.node[27].veinsmobility 	minSpeed 	3.246294260025
scalar IntersectionExampleScenario.node[27].veinsmobility 	maxSpeed 	15.02499961853
scalar IntersectionExampleScenario.node[27].veinsmobility 	totalDistance 	543.2881322143
scalar IntersectionExampleScenario.node[27].veinsmobility 	totalCO2Emission 	132.30584723432
scalar IntersectionExampleScenario.node[28].appl 	VehicleRemoved 	0
scalar IntersectionExampleScenario.node[28].appl 	ArrivedAtDest 	1
scalar IntersectionExampleScenario.node[28].appl 	IntersectionEnterTime 	104.75
scalar IntersectionExampleScenario.node[28].appl 	IntersectionExitTime 	129.37033426747
scalar IntersectionExampleScenario.node[28].appl 	NumberOfCollisions 	0
scalar IntersectionExampleScenario.node[28].nic.phy80211p 	busyTime 	0
scalar IntersectionExampleScenario.node[28].nic.mac1609_4 	ReceivedUnicastPackets 	0
scalar IntersectionExampleScenario.node[28].nic.mac1609_4 	ReceivedBroadcasts 	0
scalar IntersectionExampleScenario.node[28].nic.mac1609_4 	SentPackets 	0
scalar IntersectionExampleScenario.node[28].nic.mac1609_4 	SNIRLostPackets 	0
scalar IntersectionExampleScenario.node[28].nic.mac1609_4 	RXTXLostPackets 	0
scalar IntersectionExampleScenario.node[28].nic.mac1609_4 	TotalLostPackets 	0
scalar IntersectionExampleScenario.node[28].nic.mac1609_4 	DroppedPacketsInMac 	0
scalar IntersectionExampleScenario.node[28].nic.mac1609_4 	TooLittleTime 	0
scalar IntersectionExampleScenario.node[28].nic.mac1609_4 	TimesIntoBackoff 	0
scalar IntersectionExampleScenario.node[28].nic.mac1609_4 	SlotsBackoff 	0
scalar IntersectionExampleScenario.node[28].nic.mac1609_4 	NumInternalContention 	0
scalar IntersectionExampleScenario.node[28].nic.mac1609_4 	totalBusyTime 	0
scalar IntersectionExampleScenario.node[28].veinsmobility 	startTime 	104.75
scalar IntersectionExampleScenario.node[28].veinsmobility 	totalTime 	40.75
scalar IntersectionExampleScenario.node[28].veinsmobility 	stopTime 	145.75
scalar IntersectionExampleScenario.node[28].veinsmobility 	minSpeed 	5.6500000953674
scalar IntersectionExampleScenario.node[28].veinsmobility 	maxSpeed 	15.64999961853
scalar IntersectionExampleScenario.node[28].veinsmobility 	totalDistance 	551.58094710929
scalar IntersectionExampleScenario.node[28].veinsmobility 	totalCO2Emission 	140.23260169498
scalar IntersectionExampleScenario.node[29].appl 	VehicleRemoved 	0
scalar IntersectionExampleScenario.node[29].appl 	ArrivedAtDest 	1
scalar IntersectionExampleScenario.node[29].appl 	IntersectionEnterTime 	107
scalar IntersectionExampleScenario.node[29].appl 	IntersectionExitTime 	131.76057978725
scalar IntersectionExampleScenario.node[29].appl 	NumberOfCollisions 	0
scalar IntersectionExampleScenario.node[29].nic.phy80211p 	busyTime 	0
scalar IntersectionExampleScenario.node[29].nic.mac1609_4 	ReceivedUnicastPackets 	0
scalar IntersectionExampleScenario.node[29].nic.mac1609_4 	ReceivedBroadcasts 	0
scalar IntersectionExampleScenario.node[29].nic.mac1609_4 	SentPackets 	0
scalar IntersectionExampleScenario.node[29].nic.mac1609_4 	SNIRLostPackets 	0
scalar IntersectionExampleScenario.node[29].nic.mac1609_4 	RXTXLostPackets 	0
scalar IntersectionExampleScenario.node[29].nic.mac1609_4 	TotalLostPackets 	0
scalar IntersectionExampleScenario.node[29].nic.mac1609_4 	DroppedPacketsInMac 	0
scalar IntersectionExampleScenario.node[29].nic.mac1609_4 	TooLittleTime 	0
scalar IntersectionExampleScenario.node[29].nic.mac1609_4 	TimesIntoBackoff 	0
scalar IntersectionExampleScenario.node[29].nic.mac1609_4 	SlotsBackoff 	0
scalar IntersectionExampleScenario.node[29].nic.mac1609_4 	NumInternalContention 	0
scalar IntersectionExampleScenario.node[29].nic.mac1609_4 	totalBusyTime 	0
scalar IntersectionExampleScenario.node[29].veinsmobility 	startTime 	107
scalar IntersectionExampleScenario.node[29].veinsmobility 	totalTime 	41.25
scalar IntersectionExampleScenario.node[29].veinsmobility 	stopTime 	148.5
scalar IntersectionExampleScenario.node[29].veinsmobility 	minSpeed 	5.6500000953674
scalar IntersectionExampleScenario.node[29].veinsmobility 	maxSpeed 	15.147862434387
scalar IntersectionExampleScenario.node[29].veinsmobility 	totalDistance 	569.94512176514
scalar IntersectionExampleScenario.node[29].veinsmobility 	totalCO2Emission 	122.39241410045
scalar IntersectionExampleScenario.node[30].appl 	VehicleRemoved 	0
scalar IntersectionExampleScenario.node[30].appl 	ArrivedAtDest 	1
scalar IntersectionExampleScenario.node[30].appl 	IntersectionEnterTime 	108
scalar IntersectionExampleScenario.node[30].appl 	IntersectionExitTime 	133.61247157698
scalar IntersectionExampleScenario.node[30].appl 	NumberOfCollisions 	0
scalar IntersectionExampleScenario.node[30].nic.phy80211p 	busyTime 	0
scalar IntersectionExampleScenario.node[30].nic.mac1609_4 	ReceivedUnicastPackets 	0
scalar IntersectionExampleScenario.node[30].nic.mac1609_4 	ReceivedBroadcasts 	0
scalar IntersectionExampleScenario.node[30].nic.mac1609_4 	SentPackets 	0
scalar IntersectionExampleScenario.node[30].nic.mac1609_4 	SNIRLostPackets 	0
scalar IntersectionExampleScenario.node[30].nic.mac1609_4 	RXTXLostPackets 	0
scalar IntersectionExampleScenario.node[30].nic.mac1609_4 	TotalLostPackets 	0
scalar IntersectionExampleScenario.node[30].nic.mac1609_4 	DroppedPacketsInMac 	0
scalar IntersectionExampleScenario.node[30].nic.mac1609_4 	TooLittleTime 	0
scalar IntersectionExampleScenario.node[30].nic.mac1609_4 	TimesIntoBackoff 	0
scalar IntersectionExampleScenario.node[30].nic.mac1609_4 	SlotsBackoff 	0
scalar IntersectionExampleScenario.node[30].nic.mac1609_4 	NumInternalContention 	0
scalar IntersectionExampleScenario.node[30].nic.mac1609_4 	totalBusyTime 	0
scalar IntersectionExampleScenario.node[30].veinsmobility 	startTime 	108
scalar IntersectionExampleScenario.node[30].veinsmobility 	totalTime 	41.5
scalar IntersectionExampleScenario.node[30].veinsmobility 	stopTime 	149.75
scalar IntersectionExampleScenario.node[30].veinsmobility 	minSpeed 	5.6500000953674
scalar IntersectionExampleScenario.node[30].veinsmobility 	maxSpeed 	15.397484779358
scalar IntersectionExampleScenario.node[30].veinsmobility 	totalDistance 	581.68887329102
scalar IntersectionExampleScenario.node[30].veinsmobility 	totalCO2Emission 	130.24922667129
scalar IntersectionExampleScenario.node[33].appl 	VehicleRemoved 	0
scalar IntersectionExampleScenario.node[33].appl 	ArrivedAtDest 	1
scalar IntersectionExampleScenario.node[33].appl 	IntersectionEnterTime 	115
scalar IntersectionExampleScenario.node[33].appl 	IntersectionExitTime 	136.31723550762
scalar IntersectionExampleScenario.node[33].appl 	NumberOfCollisions 	0
scalar IntersectionExampleScenario.node[33].nic.phy80211p 	busyTime 	0
scalar IntersectionExampleScenario.node[33].nic.mac1609_4 	ReceivedUnicastPackets 	0
scalar IntersectionExampleScenario.node[33].nic.mac1609_4 	ReceivedBroadcasts 	0
scalar IntersectionExampleScenario.node[33].nic.mac1609_4 	SentPackets 	0
scalar IntersectionExampleScenario.node[33].nic.mac1609_4 	SNIRLostPackets 	0
scalar IntersectionExampleScenario.node[33].nic.mac1609_4 	RXTXLostPackets 	0
scalar IntersectionExampleScenario.node[33].nic.mac1609_4 	TotalLostPackets 	0
scalar IntersectionExampleScenario.node[33].nic.mac1609_4 	DroppedPacketsInMac 	0
scalar IntersectionExampleScenario.node[33].nic.mac1609_4 	TooLittleTime 	0
scalar IntersectionExampleScenario.node[33].nic.mac1609_4 	TimesIntoBackoff 	0
scalar IntersectionExampleScenario.node[33].nic.mac1609_4 	SlotsBackoff 	0
scalar IntersectionExampleScenario.node[33].nic.mac1609_4 	NumInternalContention 	0
scalar IntersectionExampleScenario.node[33].nic.mac1609_4 	totalBusyTime 	0
scalar IntersectionExampleScenario.node[33].veinsmobility 	startTime 	115
scalar IntersectionExampleScenario.node[33].veinsmobility 	totalTime 	37
scalar IntersectionExampleScenario.node[33].veinsmobility 	stopTime 	152.25
scalar IntersectionExampleScenario.node[33].veinsmobility 	minSpeed 	5.6500000953674
scalar IntersectionExampleScenario.node[33].veinsmobility 	maxSpeed 	15.5
scalar IntersectionExampleScenario.node[33].veinsmobility 	totalDistance 	526.68235015869
scalar IntersectionExampleScenario.node[33].veinsmobility 	totalCO2Emission 	112.96828384645
scalar IntersectionExampleScenario.node[26].appl 	VehicleRemoved 	0
scalar IntersectionExampleScenario.node[26].appl 	ArrivedAtDest 	1
scalar IntersectionExampleScenario.node[26].appl 	IntersectionEnterTime 	87.5
scalar IntersectionExampleScenario.node[26].appl 	IntersectionExitTime 	138.54672797615
scalar IntersectionExampleScenario.node[26].appl 	NumberOfCollisions 	0
scalar IntersectionExampleScenario.node[26].nic.phy80211p 	busyTime 	0
scalar IntersectionExampleScenario.node[26].nic.mac1609_4 	ReceivedUnicastPackets 	0
scalar IntersectionExampleScenario.node[26].nic.mac1609_4 	ReceivedBroadcasts 	0
scalar IntersectionExampleScenario.node[26].nic.mac1609_4 	SentPackets 	0
scalar IntersectionExampleScenario.node[26].nic.mac1609_4 	SNIRLostPackets 	0
scalar IntersectionExampleScenario.node[26].nic.mac1609_4 	RXTXLostPackets 	0
scalar IntersectionExampleScenario.node[26].nic.mac1609_4 	TotalLostPackets 	0
scalar IntersectionExampleScenario.node[26].nic.mac1609_4 	DroppedPacketsInMac 	0
scalar IntersectionExampleScenario.node[26].nic.mac1609_4 	TooLittleTime 	0
scalar IntersectionExampleScenario.node[26].nic.mac1609_4 	TimesIntoBackoff 	0
scalar IntersectionExampleScenario.node[26].nic.mac1609_4 	SlotsBackoff 	0
scalar IntersectionExampleScenario.node[26].nic.mac1609_4 	NumInternalContention 	0
scalar IntersectionExampleScenario.node[26].nic.mac1609_4 	totalBusyTime 	0
scalar IntersectionExampleScenario.node[26].veinsmobility 	startTime 	87.5
scalar IntersectionExampleScenario.node[26].veinsmobility 	totalTime 	68.25
scalar IntersectionExampleScenario.node[26].veinsmobility 	stopTime 	156
scalar IntersectionExampleScenario.node[26].veinsmobility 	minSpeed 	0
scalar IntersectionExampleScenario.node[26].veinsmobility 	maxSpeed 	15.25
scalar IntersectionExampleScenario.node[26].veinsmobility 	totalDistance 	549.81804562957
scalar IntersectionExampleScenario.node[26].veinsmobility 	totalCO2Emission 	156.18426500649
scalar IntersectionExampleScenario.node[35].appl 	VehicleRemoved 	0
scalar IntersectionExampleScenario.node[35].appl 	ArrivedAtDest 	1
scalar IntersectionExampleScenario.node[35].appl 	IntersectionEnterTime 	119.75
scalar IntersectionExampleScenario.node[35].appl 	IntersectionExitTime 	152.52248966423
scalar IntersectionExampleScenario.node[35].appl 	NumberOfCollisions 	0
scalar IntersectionExampleScenario.node[35].nic.phy80211p 	busyTime 	0
scalar IntersectionExampleScenario.node[35].nic.mac1609_4 	ReceivedUnicastPackets 	0
scalar IntersectionExampleScenario.node[35].nic.mac1609_4 	ReceivedBroadcasts 	0
scalar IntersectionExampleScenario.node[35].nic.mac1609_4 	SentPackets 	0
scalar IntersectionExampleScenario.node[35].nic.mac1609_4 	SNIRLostPackets 	0
scalar IntersectionExampleScenario.node[35].nic.mac1609_4 	RXTXLostPackets 	0
scalar IntersectionExampleScenario.node[35].nic.mac1609_4 	TotalLostPackets 	0
scalar IntersectionExampleScenario.node[35].nic.mac1609_4 	DroppedPacketsInMac 	0
scalar IntersectionExampleScenario.node[35].nic.mac1609_4 	TooLittleTime 	0
scalar IntersectionExampleScenario.node[35].nic.mac1609_4 	TimesIntoBackoff 	0
scalar IntersectionExampleScenario.node[35].nic.mac1609_4 	SlotsBackoff 	0
scalar IntersectionExampleScenario.node[35].nic.mac1609_4 	NumInternalContention 	0
scalar IntersectionExampleScenario.node[35].nic.mac1609_4 	totalBusyTime 	0
scalar IntersectionExampleScenario.node[35].veinsmobility 	startTime 	119.75
scalar IntersectionExampleScenario.node[35].veinsmobility 	totalTime 	49.5
scalar IntersectionExampleScenario.node[35].veinsmobility 	stopTime 	169.5
scalar IntersectionExampleScenario.node[35].veinsmobility 	minSpeed 	0
scalar IntersectionExampleScenario.node[35].veinsmobility 	maxSpeed 	15.64999961853
scalar IntersectionExampleScenario.node[35].veinsmobility 	totalDistance 	544.42742062957
scalar IntersectionExampleScenario.node[35].veinsmobility 	totalCO2Emission 	141.58599088446
scalar IntersectionExampleScenario.node[34].appl 	VehicleRemoved 	0
scalar IntersectionExampleScenario.node[34].appl 	ArrivedAtDest 	1
scalar IntersectionExampleScenario.node[34].appl 	IntersectionEnterTime 	119.75
scalar IntersectionExampleScenario.node[34].appl 	IntersectionExitTime 	153.28177264173
scalar IntersectionExampleScenario.node[34].appl 	NumberOfCollisions 	0
scalar IntersectionExampleScenario.node[34].nic.phy80211p 	busyTime 	0
scalar IntersectionExampleScenario.node[34].nic.mac1609_4 	ReceivedUnicastPackets 	0
scalar IntersectionExampleScenario.node[34].nic.mac1609_4 	ReceivedBroadcasts 	0
scalar IntersectionExampleScenario.node[34].nic.mac1609_4 	SentPackets 	0
scalar IntersectionExampleScenario.node[34].nic.mac1609_4 	SNIRLostPackets 	0
scalar IntersectionExampleScenario.node[34].nic.mac1609_4 	RXTXLostPackets 	0
scalar IntersectionExampleScenario.node[34].nic.mac1609_4 	TotalLostPackets 	0
scalar IntersectionExampleScenario.node[34].nic.mac1609_4 	DroppedPacketsInMac 	0
scalar IntersectionExampleScenario.node[34].nic.mac1609_4 	TooLittleTime 	0
scalar IntersectionExampleScenario.node[34].nic.mac1609_4 	TimesIntoBackoff 	0
scalar IntersectionExampleScenario.node[34].nic.mac1609_4 	SlotsBackoff 	0
scalar IntersectionExampleScenario.node[34].nic.mac1609_4 	NumInternalContention 	0
scalar IntersectionExampleScenario.node[34].nic.mac1609_4 	totalBusyTime 	0
scalar IntersectionExampleScenario.node[34].veinsmobility 	startTime 	119.75
scalar IntersectionExampleScenario.node[34].veinsmobility 	totalTime 	49.5
scalar IntersectionExampleScenario.node[34].veinsmobility 	stopTime 	169.5
scalar IntersectionExampleScenario.node[34].veinsmobility 	minSpeed 	0
scalar IntersectionExampleScenario.node[34].veinsmobility 	maxSpeed 	15.64999961853
scalar IntersectionExampleScenario.node[34].veinsmobility 	totalDistance 	553.04892730713
scalar IntersectionExampleScenario.node[34].veinsmobility 	totalCO2Emission 	142.36397809001
scalar IntersectionExampleScenario.node[38].appl 	VehicleRemoved 	0
scalar IntersectionExampleScenario.node[38].appl 	ArrivedAtDest 	1
scalar IntersectionExampleScenario.node[38].appl 	IntersectionEnterTime 	127.5
scalar IntersectionExampleScenario.node[38].appl 	IntersectionExitTime 	155.54735232363
scalar IntersectionExampleScenario.node[38].appl 	NumberOfCollisions 	0
scalar IntersectionExampleScenario.node[38].nic.phy80211p 	busyTime 	0
scalar IntersectionExampleScenario.node[38].nic.mac1609_4 	ReceivedUnicastPackets 	0
scalar IntersectionExampleScenario.node[38].nic.mac1609_4 	ReceivedBroadcasts 	0
scalar IntersectionExampleScenario.node[38].nic.mac1609_4 	SentPackets 	0
scalar IntersectionExampleScenario.node[38].nic.mac1609_4 	SNIRLostPackets 	0
scalar IntersectionExampleScenario.node[38].nic.mac1609_4 	RXTXLostPackets 	0
scalar IntersectionExampleScenario.node[38].nic.mac1609_4 	TotalLostPackets 	0
scalar IntersectionExampleScenario.node[38].nic.mac1609_4 	DroppedPacketsInMac 	0
scalar IntersectionExampleScenario.node[38].nic.mac1609_4 	TooLittleTime 	0
scalar IntersectionExampleScenario.node[38].nic.mac1609_4 	TimesIntoBackoff 	0
scalar IntersectionExampleScenario.node[38].nic.mac1609_4 	SlotsBackoff 	0
scalar IntersectionExampleScenario.node[38].nic.mac1609_4 	NumInternalContention 	0
scalar IntersectionExampleScenario.node[38].nic.mac1609_4 	totalBusyTime 	0
scalar IntersectionExampleScenario.node[38].veinsmobility 	startTime 	127.5
scalar IntersectionExampleScenario.node[38].veinsmobility 	totalTime 	43.75
scalar IntersectionExampleScenario.node[38].veinsmobility 	stopTime 	171.5
scalar IntersectionExampleScenario.node[38].veinsmobility 	minSpeed 	4.2631373405457
scalar IntersectionExampleScenario.node[38].veinsmobility 	maxSpeed 	15.64999961853
scalar IntersectionExampleScenario.node[38].veinsmobility 	totalDistance 	552.58567047119
scalar IntersectionExampleScenario.node[38].veinsmobility 	totalCO2Emission 	133.51986743705
scalar IntersectionExampleScenario.node[40].appl 	VehicleRemoved 	0
scalar IntersectionExampleScenario.node[40].appl 	ArrivedAtDest 	1
scalar IntersectionExampleScenario.node[40].appl 	IntersectionEnterTime 	133.5
scalar IntersectionExampleScenario.node[40].appl 	IntersectionExitTime 	158.531949672
scalar IntersectionExampleScenario.node[40].appl 	NumberOfCollisions 	0
scalar IntersectionExampleScenario.node[40].nic.phy80211p 	busyTime 	0
scalar IntersectionExampleScenario.node[40].nic.mac1609_4 	ReceivedUnicastPackets 	0
scalar IntersectionExampleScenario.node[40].nic.mac1609_4 	ReceivedBroadcasts 	0
scalar IntersectionExampleScenario.node[40].nic.mac1609_4 	SentPackets 	0
scalar IntersectionExampleScenario.node[40].nic.mac1609_4 	SNIRLostPackets 	0
scalar IntersectionExampleScenario.node[40].nic.mac1609_4 	RXTXLostPackets 	0
scalar IntersectionExampleScenario.node[40].nic.mac1609_4 	TotalLostPackets 	0
scalar IntersectionExampleScenario.node[40].nic.mac1609_4 	DroppedPacketsInMac 	0
scalar IntersectionExampleScenario.node[40].nic.mac1609_4 	TooLittleTime 	0
scalar IntersectionExampleScenario.node[40].nic.mac1609_4 	TimesIntoBackoff 	0
scalar IntersectionExampleScenario.node[40].nic.mac1609_4 	SlotsBackoff 	0
scalar IntersectionExampleScenario.node[40].nic.mac1609_4 	NumInternalContention 	0
scalar IntersectionExampleScenario.node[40].nic.mac1609_4 	totalBusyTime 	0
scalar IntersectionExampleScenario.node[40].veinsmobility 	startTime 	133.5
scalar IntersectionExampleScenario.node[40].veinsmobility 	totalTime 	41.75
scalar IntersectionExampleScenario.node[40].veinsmobility 	stopTime 	175.5
scalar IntersectionExampleScenario.node[40].veinsmobility 	minSpeed 	5.6500000953674
scalar IntersectionExampleScenario.node[40].veinsmobility 	maxSpeed 	15.382998466492
scalar IntersectionExampleScenario.node[40].veinsmobility 	totalDistance 	551.71563533955
scalar IntersectionExampleScenario.node[40].veinsmobility 	totalCO2Emission 	138.47855995762
scalar IntersectionExampleScenario.node[41].appl 	VehicleRemoved 	0
scalar IntersectionExampleScenario.node[41].appl 	ArrivedAtDest 	1
scalar IntersectionExampleScenario.node[41].appl 	IntersectionEnterTime 	134
scalar IntersectionExampleScenario.node[41].appl 	IntersectionExitTime 	160.07198166961
scalar IntersectionExampleScenario.node[41].appl 	NumberOfCollisions 	0
scalar IntersectionExampleScenario.node[41].nic.phy80211p 	busyTime 	0
scalar IntersectionExampleScenario.node[41].nic.mac1609_4 	ReceivedUnicastPackets 	0
scalar IntersectionExampleScenario.node[41].nic.mac1609_4 	ReceivedBroadcasts 	0
scalar IntersectionExampleScenario.node[41].nic.mac1609_4 	SentPackets 	0
scalar IntersectionExampleScenario.node[41].nic.mac1609_4 	SNIRLostPackets 	0
scalar IntersectionExampleScenario.node[41].nic.mac1609_4 	RXTXLostPackets 	0
scalar IntersectionExampleScenario.node[41].nic.mac1609_4 	TotalLostPackets 	0
scalar IntersectionExampleScenario.node[41].nic.mac1609_4 	DroppedPacketsInMac 	0
scalar IntersectionExampleScenario.node[41].nic.mac1609_4 	TooLittleTime 	0
scalar IntersectionExampleScenario.node[41].nic.mac1609_4 	TimesIntoBackoff 	0
scalar IntersectionExampleScenario.node[41].nic.mac1609_4 	SlotsBackoff 	0
scalar IntersectionExampleScenario.node[41].nic.mac1609_4 	NumInternalContention 	0
scalar IntersectionExampleScenario.node[41].nic.mac1609_4 	totalBusyTime 	0
scalar IntersectionExampleScenario.node[41].veinsmobility 	startTime 	134
scalar IntersectionExampleScenario.node[41].veinsmobility 	totalTime 	41.5
scalar IntersectionExampleScenario.node[41].veinsmobility 	stopTime 	175.75
scalar IntersectionExampleScenario.node[41].veinsmobility 	minSpeed 	5.6500000953674
scalar IntersectionExampleScenario.node[41].veinsmobility 	maxSpeed 	17.125
scalar IntersectionExampleScenario.node[41].veinsmobility 	totalDistance 	568.03740262146
scalar IntersectionExampleScenario.node[41].veinsmobility 	totalCO2Emission 	145.82088862026
scalar IntersectionExampleScenario.node[31].appl 	VehicleRemoved 	0
scalar IntersectionExampleScenario.node[31].appl 	ArrivedAtDest 	1
scalar IntersectionExampleScenario.node[31].appl 	IntersectionEnterTime 	113
scalar IntersectionExampleScenario.node[31].appl 	IntersectionExitTime 	168.5400772334
scalar IntersectionExampleScenario.node[31].appl 	NumberOfCollisions 	0
scalar IntersectionExampleScenario.node[31].nic.phy80211p 	busyTime 	0
scalar IntersectionExampleScenario.node[31].nic.mac1609_4 	ReceivedUnicastPackets 	0
scalar IntersectionExampleScenario.node[31].nic.mac1609_4 	ReceivedBroadcasts 	0
scalar IntersectionExampleScenario.node[31].nic.mac1609_4 	SentPackets 	0
scalar IntersectionExampleScenario.node[31].nic.mac1609_4 	SNIRLostPackets 	0
scalar IntersectionExampleScenario.node[31].nic.mac1609_4 	RXTXLostPackets 	0
scalar IntersectionExampleScenario.node[31].nic.mac1609_4 	TotalLostPackets 	0
scalar IntersectionExampleScenario.node[31].nic.mac1609_4 	DroppedPacketsInMac 	0
scalar IntersectionExampleScenario.node[31].nic.mac1609_4 	TooLittleTime 	0
scalar IntersectionExampleScenario.node[31].nic.mac1609_4 	TimesIntoBackoff 	0
scalar IntersectionExampleScenario.node[31].nic.mac1609_4 	SlotsBackoff 	0
scalar IntersectionExampleScenario.node[31].nic.mac1609_4 	NumInternalContention 	0
scalar IntersectionExampleScenario.node[31].nic.mac1609_4 	totalBusyTime 	0
scalar IntersectionExampleScenario.node[31].veinsmobility 	startTime 	113
scalar IntersectionExampleScenario.node[31].veinsmobility 	totalTime 	72.5
scalar IntersectionExampleScenario.node[31].veinsmobility 	stopTime 	185.75
scalar IntersectionExampleScenario.node[31].veinsmobility 	minSpeed 	0
scalar IntersectionExampleScenario.node[31].veinsmobility 	maxSpeed 	15.25
scalar IntersectionExampleScenario.node[31].veinsmobility 	totalDistance 	560.00351621062
scalar IntersectionExampleScenario.node[31].veinsmobility 	totalCO2Emission 	168.19730665784
scalar IntersectionExampleScenario.node[32].appl 	VehicleRemoved 	0
scalar IntersectionExampleScenario.node[32].appl 	ArrivedAtDest 	1
scalar IntersectionExampleScenario.node[32].appl 	IntersectionEnterTime 	113.5
scalar IntersectionExampleScenario.node[32].appl 	IntersectionExitTime 	170.32018494999
scalar IntersectionExampleScenario.node[32].appl 	NumberOfCollisions 	0
scalar IntersectionExampleScenario.node[32].nic.phy80211p 	busyTime 	0
scalar IntersectionExampleScenario.node[32].nic.mac1609_4 	ReceivedUnicastPackets 	0
scalar IntersectionExampleScenario.node[32].nic.mac1609_4 	ReceivedBroadcasts 	0
scalar IntersectionExampleScenario.node[32].nic.mac1609_4 	SentPackets 	0
scalar IntersectionExampleScenario.node[32].nic.mac1609_4 	SNIRLostPackets 	0
scalar IntersectionExampleScenario.node[32].nic.mac1609_4 	RXTXLostPackets 	0
scalar IntersectionExampleScenario.node[32].nic.mac1609_4 	TotalLostPackets 	0
scalar IntersectionExampleScenario.node[32].nic.mac1609_4 	DroppedPacketsInMac 	0
scalar IntersectionExampleScenario.node[32].nic.mac1609_4 	TooLittleTime 	0
scalar IntersectionExampleScenario.node[32].nic.mac1609_4 	TimesIntoBackoff 	0
scalar IntersectionExampleScenario.node[32].nic.mac1609_4 	SlotsBackoff 	0
scalar IntersectionExampleScenario.node[32].nic.mac1609_4 	NumInternalContention 	0
scalar IntersectionExampleScenario.node[32].nic.mac1609_4 	totalBusyTime 	0
scalar IntersectionExampleScenario.node[32].veinsmobility 	startTime 	113.5
scalar IntersectionExampleScenario.node[32].veinsmobility 	totalTime 	74.25
scalar IntersectionExampleScenario.node[32].veinsmobility 	stopTime 	188
scalar IntersectionExampleScenario.node[32].veinsmobility 	minSpeed 	0
scalar IntersectionExampleScenario.node[32].veinsmobility 	maxSpeed 	14.75
scalar IntersectionExampleScenario.node[32].veinsmobility 	totalDistance 	584.00718667739
scalar IntersectionExampleScenario.node[32].veinsmobility 	totalCO2Emission 	161.84155044458
scalar IntersectionExampleScenario.node[36].appl 	VehicleRemoved 	0
scalar IntersectionExampleScenario.node[36].appl 	ArrivedAtDest 	1
scalar IntersectionExampleScenario.node[36].appl 	IntersectionEnterTime 	123.25
scalar IntersectionExampleScenario.node[36].appl 	IntersectionExitTime 	172.50352271047
scalar IntersectionExampleScenario.node[36].appl 	NumberOfCollisions 	0
scalar IntersectionExampleScenario.node[36].nic.phy80211p 	busyTime 	0
scalar IntersectionExampleScenario.node[36].nic.mac1609_4 	ReceivedUnicastPackets 	0
scalar IntersectionExampleScenario.node[36].nic.mac1609_4 	ReceivedBroadcasts 	0
scalar IntersectionExampleScenario.node[36].nic.mac1609_4 	SentPackets 	0
scalar IntersectionExampleScenario.node[36].nic.mac1609_4 	SNIRLostPackets 	0
scalar IntersectionExampleScenario.node[36].nic.mac1609_4 	RXTXLostPackets 	0
scalar IntersectionExampleScenario.node[36].nic.mac1609_4 	TotalLostPackets 	0
scalar IntersectionExampleScenario.node[36].nic.mac1609_4 	DroppedPacketsInMac 	0
scalar IntersectionExampleScenario.node[36].nic.mac1609_4 	TooLittleTime 	0
scalar IntersectionExampleScenario.node[36].nic.mac1609_4 	TimesIntoBackoff 	0
[...]
scalar IntersectionExampleScenario.node[552].veinsmobility 	totalCO2Emission 	85.986590911446
scalar IntersectionExampleScenario.node[553].appl 	VehicleRemoved 	0
scalar IntersectionExampleScenario.node[553].appl 	ArrivedAtDest 	0
scalar IntersectionExampleScenario.node[553].appl 	IntersectionEnterTime 	1776.25
scalar IntersectionExampleScenario.node[553].appl 	IntersectionExitTime 	-1
scalar IntersectionExampleScenario.node[553].appl 	NumberOfCollisions 	0
scalar IntersectionExampleScenario.node[553].nic.phy80211p 	busyTime 	0
scalar IntersectionExampleScenario.node[553].nic.mac1609_4 	ReceivedUnicastPackets 	0
scalar IntersectionExampleScenario.node[553].nic.mac1609_4 	ReceivedBroadcasts 	0
scalar IntersectionExampleScenario.node[553].nic.mac1609_4 	SentPackets 	0
scalar IntersectionExampleScenario.node[553].nic.mac1609_4 	SNIRLostPackets 	0
scalar IntersectionExampleScenario.node[553].nic.mac1609_4 	RXTXLostPackets 	0
scalar IntersectionExampleScenario.node[553].nic.mac1609_4 	TotalLostPackets 	0
scalar IntersectionExampleScenario.node[553].nic.mac1609_4 	DroppedPacketsInMac 	0
scalar IntersectionExampleScenario.node[553].nic.mac1609_4 	TooLittleTime 	0
scalar IntersectionExampleScenario.node[553].nic.mac1609_4 	TimesIntoBackoff 	0
scalar IntersectionExampleScenario.node[553].nic.mac1609_4 	SlotsBackoff 	0
scalar IntersectionExampleScenario.node[553].nic.mac1609_4 	NumInternalContention 	0
scalar IntersectionExampleScenario.node[553].nic.mac1609_4 	totalBusyTime 	0
scalar IntersectionExampleScenario.node[553].veinsmobility 	startTime 	1776.25
scalar IntersectionExampleScenario.node[553].veinsmobility 	totalTime 	23.75
scalar IntersectionExampleScenario.node[553].veinsmobility 	stopTime 	1800
scalar IntersectionExampleScenario.node[553].veinsmobility 	minSpeed 	0
scalar IntersectionExampleScenario.node[553].veinsmobility 	maxSpeed 	15.64999961853
scalar IntersectionExampleScenario.node[553].veinsmobility 	totalDistance 	287.42190551758
scalar IntersectionExampleScenario.node[553].veinsmobility 	totalCO2Emission 	68.126590807543
scalar IntersectionExampleScenario.node[554].appl 	VehicleRemoved 	0
scalar IntersectionExampleScenario.node[554].appl 	ArrivedAtDest 	0
scalar IntersectionExampleScenario.node[554].appl 	IntersectionEnterTime 	1777.5
scalar IntersectionExampleScenario.node[554].appl 	IntersectionExitTime 	-1
scalar IntersectionExampleScenario.node[554].appl 	NumberOfCollisions 	0
scalar IntersectionExampleScenario.node[554].nic.phy80211p 	busyTime 	0
scalar IntersectionExampleScenario.node[554].nic.mac1609_4 	ReceivedUnicastPackets 	0
scalar IntersectionExampleScenario.node[554].nic.mac1609_4 	ReceivedBroadcasts 	0
scalar IntersectionExampleScenario.node[554].nic.mac1609_4 	SentPackets 	0
scalar IntersectionExampleScenario.node[554].nic.mac1609_4 	SNIRLostPackets 	0
scalar IntersectionExampleScenario.node[554].nic.mac1609_4 	RXTXLostPackets 	0
scalar IntersectionExampleScenario.node[554].nic.mac1609_4 	TotalLostPackets 	0
scalar IntersectionExampleScenario.node[554].nic.mac1609_4 	DroppedPacketsInMac 	0
scalar IntersectionExampleScenario.node[554].nic.mac1609_4 	TooLittleTime 	0
scalar IntersectionExampleScenario.node[554].nic.mac1609_4 	TimesIntoBackoff 	0
scalar IntersectionExampleScenario.node[554].nic.mac1609_4 	SlotsBackoff 	0
scalar IntersectionExampleScenario.node[554].nic.mac1609_4 	NumInternalContention 	0
scalar IntersectionExampleScenario.node[554].nic.mac1609_4 	totalBusyTime 	0
scalar IntersectionExampleScenario.node[554].veinsmobility 	startTime 	1777.5
scalar IntersectionExampleScenario.node[554].veinsmobility 	totalTime 	22.5
scalar IntersectionExampleScenario.node[554].veinsmobility 	stopTime 	1800
scalar IntersectionExampleScenario.node[554].veinsmobility 	minSpeed 	5.6500000953674
scalar IntersectionExampleScenario.node[554].veinsmobility 	maxSpeed 	15.64999961853
scalar IntersectionExampleScenario.node[554].veinsmobility 	totalDistance 	307.45003891354
scalar IntersectionExampleScenario.node[554].veinsmobility 	totalCO2Emission 	70.110372095151
scalar IntersectionExampleScenario.node[555].appl 	VehicleRemoved 	0
scalar IntersectionExampleScenario.node[555].appl 	ArrivedAtDest 	0
scalar IntersectionExampleScenario.node[555].appl 	IntersectionEnterTime 	1778.25
scalar IntersectionExampleScenario.node[555].appl 	IntersectionExitTime 	-1
scalar IntersectionExampleScenario.node[555].appl 	NumberOfCollisions 	0
scalar IntersectionExampleScenario.node[555].nic.phy80211p 	busyTime 	0
scalar IntersectionExampleScenario.node[555].nic.mac1609_4 	ReceivedUnicastPackets 	0
scalar IntersectionExampleScenario.node[555].nic.mac1609_4 	ReceivedBroadcasts 	0
scalar IntersectionExampleScenario.node[555].nic.mac1609_4 	SentPackets 	0
scalar IntersectionExampleScenario.node[555].nic.mac1609_4 	SNIRLostPackets 	0
scalar IntersectionExampleScenario.node[555].nic.mac1609_4 	RXTXLostPackets 	0
scalar IntersectionExampleScenario.node[555].nic.mac1609_4 	TotalLostPackets 	0
scalar IntersectionExampleScenario.node[555].nic.mac1609_4 	DroppedPacketsInMac 	0
scalar IntersectionExampleScenario.node[555].nic.mac1609_4 	TooLittleTime 	0
scalar IntersectionExampleScenario.node[555].nic.mac1609_4 	TimesIntoBackoff 	0
scalar IntersectionExampleScenario.node[555].nic.mac1609_4 	SlotsBackoff 	0
scalar IntersectionExampleScenario.node[555].nic.mac1609_4 	NumInternalContention 	0
scalar IntersectionExampleScenario.node[555].nic.mac1609_4 	totalBusyTime 	0
scalar IntersectionExampleScenario.node[555].veinsmobility 	startTime 	1778.25
scalar IntersectionExampleScenario.node[555].veinsmobility 	totalTime 	21.75
scalar IntersectionExampleScenario.node[555].veinsmobility 	stopTime 	1800
scalar IntersectionExampleScenario.node[555].veinsmobility 	minSpeed 	3.4627850055695
scalar IntersectionExampleScenario.node[555].veinsmobility 	maxSpeed 	15.64999961853
scalar IntersectionExampleScenario.node[555].veinsmobility 	totalDistance 	265.50082397461
scalar IntersectionExampleScenario.node[555].veinsmobility 	totalCO2Emission 	58.507172760689
scalar IntersectionExampleScenario.node[556].appl 	VehicleRemoved 	0
scalar IntersectionExampleScenario.node[556].appl 	ArrivedAtDest 	0
scalar IntersectionExampleScenario.node[556].appl 	IntersectionEnterTime 	1782.25
scalar IntersectionExampleScenario.node[556].appl 	IntersectionExitTime 	-1
scalar IntersectionExampleScenario.node[556].appl 	NumberOfCollisions 	0
scalar IntersectionExampleScenario.node[556].nic.phy80211p 	busyTime 	0
scalar IntersectionExampleScenario.node[556].nic.mac1609_4 	ReceivedUnicastPackets 	0
scalar IntersectionExampleScenario.node[556].nic.mac1609_4 	ReceivedBroadcasts 	0
scalar IntersectionExampleScenario.node[556].nic.mac1609_4 	SentPackets 	0
scalar IntersectionExampleScenario.node[556].nic.mac1609_4 	SNIRLostPackets 	0
scalar IntersectionExampleScenario.node[556].nic.mac1609_4 	RXTXLostPackets 	0
scalar IntersectionExampleScenario.node[556].nic.mac1609_4 	TotalLostPackets 	0
scalar IntersectionExampleScenario.node[556].nic.mac1609_4 	DroppedPacketsInMac 	0
scalar IntersectionExampleScenario.node[556].nic.mac1609_4 	TooLittleTime 	0
scalar IntersectionExampleScenario.node[556].nic.mac1609_4 	TimesIntoBackoff 	0
scalar IntersectionExampleScenario.node[556].nic.mac1609_4 	SlotsBackoff 	0
scalar IntersectionExampleScenario.node[556].nic.mac1609_4 	NumInternalContention 	0
scalar IntersectionExampleScenario.node[556].nic.mac1609_4 	totalBusyTime 	0
scalar IntersectionExampleScenario.node[556].veinsmobility 	startTime 	1782.25
scalar IntersectionExampleScenario.node[556].veinsmobility 	totalTime 	17.75
scalar IntersectionExampleScenario.node[556].veinsmobility 	stopTime 	1800
scalar IntersectionExampleScenario.node[556].veinsmobility 	minSpeed 	5.6500000953674
scalar IntersectionExampleScenario.node[556].veinsmobility 	maxSpeed 	16.019094467163
scalar IntersectionExampleScenario.node[556].veinsmobility 	totalDistance 	258.59629058838
scalar IntersectionExampleScenario.node[556].veinsmobility 	totalCO2Emission 	63.512007055855
scalar IntersectionExampleScenario.node[557].appl 	VehicleRemoved 	0
scalar IntersectionExampleScenario.node[557].appl 	ArrivedAtDest 	0
scalar IntersectionExampleScenario.node[557].appl 	IntersectionEnterTime 	1784.75
scalar IntersectionExampleScenario.node[557].appl 	IntersectionExitTime 	-1
scalar IntersectionExampleScenario.node[557].appl 	NumberOfCollisions 	0
scalar IntersectionExampleScenario.node[557].nic.phy80211p 	busyTime 	0
scalar IntersectionExampleScenario.node[557].nic.mac1609_4 	ReceivedUnicastPackets 	0
scalar IntersectionExampleScenario.node[557].nic.mac1609_4 	ReceivedBroadcasts 	0
scalar IntersectionExampleScenario.node[557].nic.mac1609_4 	SentPackets 	0
scalar IntersectionExampleScenario.node[557].nic.mac1609_4 	SNIRLostPackets 	0
scalar IntersectionExampleScenario.node[557].nic.mac1609_4 	RXTXLostPackets 	0
scalar IntersectionExampleScenario.node[557].nic.mac1609_4 	TotalLostPackets 	0
scalar IntersectionExampleScenario.node[557].nic.mac1609_4 	DroppedPacketsInMac 	0
scalar IntersectionExampleScenario.node[557].nic.mac1609_4 	TooLittleTime 	0
scalar IntersectionExampleScenario.node[557].nic.mac1609_4 	TimesIntoBackoff 	0
scalar IntersectionExampleScenario.node[557].nic.mac1609_4 	SlotsBackoff 	0
scalar IntersectionExampleScenario.node[557].nic.mac1609_4 	NumInternalContention 	0
scalar IntersectionExampleScenario.node[557].nic.mac1609_4 	totalBusyTime 	0
scalar IntersectionExampleScenario.node[557].veinsmobility 	startTime 	1784.75
scalar IntersectionExampleScenario.node[557].veinsmobility 	totalTime 	15.25
scalar IntersectionExampleScenario.node[557].veinsmobility 	stopTime 	1800
scalar IntersectionExampleScenario.node[557].veinsmobility 	minSpeed 	5.6500000953674
scalar IntersectionExampleScenario.node[557].veinsmobility 	maxSpeed 	15.64999961853
scalar IntersectionExampleScenario.node[557].veinsmobility 	totalDistance 	212.1301574707
scalar IntersectionExampleScenario.node[557].veinsmobility 	totalCO2Emission 	54.92628487038
scalar IntersectionExampleScenario.node[558].appl 	VehicleRemoved 	0
scalar IntersectionExampleScenario.node[558].appl 	ArrivedAtDest 	0
scalar IntersectionExampleScenario.node[558].appl 	IntersectionEnterTime 	1786
scalar IntersectionExampleScenario.node[558].appl 	IntersectionExitTime 	-1
scalar IntersectionExampleScenario.node[558].appl 	NumberOfCollisions 	0
scalar IntersectionExampleScenario.node[558].nic.phy80211p 	busyTime 	0
scalar IntersectionExampleScenario.node[558].nic.mac1609_4 	ReceivedUnicastPackets 	0
scalar IntersectionExampleScenario.node[558].nic.mac1609_4 	ReceivedBroadcasts 	0
scalar IntersectionExampleScenario.node[558].nic.mac1609_4 	SentPackets 	0
scalar IntersectionExampleScenario.node[558].nic.mac1609_4 	SNIRLostPackets 	0
scalar IntersectionExampleScenario.node[558].nic.mac1609_4 	RXTXLostPackets 	0
scalar IntersectionExampleScenario.node[558].nic.mac1609_4 	TotalLostPackets 	0
scalar IntersectionExampleScenario.node[558].nic.mac1609_4 	DroppedPacketsInMac 	0
scalar IntersectionExampleScenario.node[558].nic.mac1609_4 	TooLittleTime 	0
scalar IntersectionExampleScenario.node[558].nic.mac1609_4 	TimesIntoBackoff 	0
scalar IntersectionExampleScenario.node[558].nic.mac1609_4 	SlotsBackoff 	0
scalar IntersectionExampleScenario.node[558].nic.mac1609_4 	NumInternalContention 	0
scalar IntersectionExampleScenario.node[558].nic.mac1609_4 	totalBusyTime 	0
scalar IntersectionExampleScenario.node[558].veinsmobility 	startTime 	1786
scalar IntersectionExampleScenario.node[558].veinsmobility 	totalTime 	14
scalar IntersectionExampleScenario.node[558].veinsmobility 	stopTime 	1800
scalar IntersectionExampleScenario.node[558].veinsmobility 	minSpeed 	5.6500000953674
scalar IntersectionExampleScenario.node[558].veinsmobility 	maxSpeed 	15.64999961853
scalar IntersectionExampleScenario.node[558].veinsmobility 	totalDistance 	193.18721008301
scalar IntersectionExampleScenario.node[558].veinsmobility 	totalCO2Emission 	54.645400362554
scalar IntersectionExampleScenario.node[559].appl 	VehicleRemoved 	0
scalar IntersectionExampleScenario.node[559].appl 	ArrivedAtDest 	0
scalar IntersectionExampleScenario.node[559].appl 	IntersectionEnterTime 	1792
scalar IntersectionExampleScenario.node[559].appl 	IntersectionExitTime 	-1
scalar IntersectionExampleScenario.node[559].appl 	NumberOfCollisions 	0
scalar IntersectionExampleScenario.node[559].nic.phy80211p 	busyTime 	0
scalar IntersectionExampleScenario.node[559].nic.mac1609_4 	ReceivedUnicastPackets 	0
scalar IntersectionExampleScenario.node[559].nic.mac1609_4 	ReceivedBroadcasts 	0
scalar IntersectionExampleScenario.node[559].nic.mac1609_4 	SentPackets 	0
scalar IntersectionExampleScenario.node[559].nic.mac1609_4 	SNIRLostPackets 	0
scalar IntersectionExampleScenario.node[559].nic.mac1609_4 	RXTXLostPackets 	0
scalar IntersectionExampleScenario.node[559].nic.mac1609_4 	TotalLostPackets 	0
scalar IntersectionExampleScenario.node[559].nic.mac1609_4 	DroppedPacketsInMac 	0
scalar IntersectionExampleScenario.node[559].nic.mac1609_4 	TooLittleTime 	0
scalar IntersectionExampleScenario.node[559].nic.mac1609_4 	TimesIntoBackoff 	0
scalar IntersectionExampleScenario.node[559].nic.mac1609_4 	SlotsBackoff 	0
scalar IntersectionExampleScenario.node[559].nic.mac1609_4 	NumInternalContention 	0
scalar IntersectionExampleScenario.node[559].nic.mac1609_4 	totalBusyTime 	0
scalar IntersectionExampleScenario.node[559].veinsmobility 	startTime 	1792
scalar IntersectionExampleScenario.node[559].veinsmobility 	totalTime 	8
scalar IntersectionExampleScenario.node[559].veinsmobility 	stopTime 	1800
scalar IntersectionExampleScenario.node[559].veinsmobility 	minSpeed 	5.6500000953674
scalar IntersectionExampleScenario.node[559].veinsmobility 	maxSpeed 	15.64999961853
scalar IntersectionExampleScenario.node[559].veinsmobility 	totalDistance 	102.02282714844
scalar IntersectionExampleScenario.node[559].veinsmobility 	totalCO2Emission 	41.065836834251
scalar IntersectionExampleScenario.node[560].appl 	VehicleRemoved 	0
scalar IntersectionExampleScenario.node[560].appl 	ArrivedAtDest 	0
scalar IntersectionExampleScenario.node[560].appl 	IntersectionEnterTime 	1794.25
scalar IntersectionExampleScenario.node[560].appl 	IntersectionExitTime 	-1
scalar IntersectionExampleScenario.node[560].appl 	NumberOfCollisions 	0
scalar IntersectionExampleScenario.node[560].nic.phy80211p 	busyTime 	0
scalar IntersectionExampleScenario.node[560].nic.mac1609_4 	ReceivedUnicastPackets 	0
scalar IntersectionExampleScenario.node[560].nic.mac1609_4 	ReceivedBroadcasts 	0
scalar IntersectionExampleScenario.node[560].nic.mac1609_4 	SentPackets 	0
scalar IntersectionExampleScenario.node[560].nic.mac1609_4 	SNIRLostPackets 	0
scalar IntersectionExampleScenario.node[560].nic.mac1609_4 	RXTXLostPackets 	0
scalar IntersectionExampleScenario.node[560].nic.mac1609_4 	TotalLostPackets 	0
scalar IntersectionExampleScenario.node[560].nic.mac1609_4 	DroppedPacketsInMac 	0
scalar IntersectionExampleScenario.node[560].nic.mac1609_4 	TooLittleTime 	0
scalar IntersectionExampleScenario.node[560].nic.mac1609_4 	TimesIntoBackoff 	0
scalar IntersectionExampleScenario.node[560].nic.mac1609_4 	SlotsBackoff 	0
scalar IntersectionExampleScenario.node[560].nic.mac1609_4 	NumInternalContention 	0
scalar IntersectionExampleScenario.node[560].nic.mac1609_4 	totalBusyTime 	0
scalar IntersectionExampleScenario.node[560].veinsmobility 	startTime 	1794.25
scalar IntersectionExampleScenario.node[560].veinsmobility 	totalTime 	5.75
scalar IntersectionExampleScenario.node[560].veinsmobility 	stopTime 	1800
scalar IntersectionExampleScenario.node[560].veinsmobility 	minSpeed 	5.6500000953674
scalar IntersectionExampleScenario.node[560].veinsmobility 	maxSpeed 	10.64999961853
scalar IntersectionExampleScenario.node[560].veinsmobility 	totalDistance 	46.019836425781
scalar IntersectionExampleScenario.node[560].veinsmobility 	totalCO2Emission 	22.809149686225
scalar IntersectionExampleScenario.node[561].appl 	VehicleRemoved 	0
scalar IntersectionExampleScenario.node[561].appl 	ArrivedAtDest 	0
scalar IntersectionExampleScenario.node[561].appl 	IntersectionEnterTime 	1794.75
scalar IntersectionExampleScenario.node[561].appl 	IntersectionExitTime 	-1
scalar IntersectionExampleScenario.node[561].appl 	NumberOfCollisions 	0
scalar IntersectionExampleScenario.node[561].nic.phy80211p 	busyTime 	0
scalar IntersectionExampleScenario.node[561].nic.mac1609_4 	ReceivedUnicastPackets 	0
scalar IntersectionExampleScenario.node[561].nic.mac1609_4 	ReceivedBroadcasts 	0
scalar IntersectionExampleScenario.node[561].nic.mac1609_4 	SentPackets 	0
scalar IntersectionExampleScenario.node[561].nic.mac1609_4 	SNIRLostPackets 	0
scalar IntersectionExampleScenario.node[561].nic.mac1609_4 	RXTXLostPackets 	0
scalar IntersectionExampleScenario.node[561].nic.mac1609_4 	TotalLostPackets 	0
scalar IntersectionExampleScenario.node[561].nic.mac1609_4 	DroppedPacketsInMac 	0
scalar IntersectionExampleScenario.node[561].nic.mac1609_4 	TooLittleTime 	0
scalar IntersectionExampleScenario.node[561].nic.mac1609_4 	TimesIntoBackoff 	0
scalar IntersectionExampleScenario.node[561].nic.mac1609_4 	SlotsBackoff 	0
scalar IntersectionExampleScenario.node[561].nic.mac1609_4 	NumInternalContention 	0
scalar IntersectionExampleScenario.node[561].nic.mac1609_4 	totalBusyTime 	0
scalar IntersectionExampleScenario.node[561].veinsmobility 	startTime 	1794.75
scalar IntersectionExampleScenario.node[561].veinsmobility 	totalTime 	5.25
scalar IntersectionExampleScenario.node[561].veinsmobility 	stopTime 	1800
scalar IntersectionExampleScenario.node[561].veinsmobility 	minSpeed 	5.6500000953674
scalar IntersectionExampleScenario.node[561].veinsmobility 	maxSpeed 	9.5365724563599
scalar IntersectionExampleScenario.node[561].veinsmobility 	totalDistance 	42.3193359375
scalar IntersectionExampleScenario.node[561].veinsmobility 	totalCO2Emission 	14.446822020255
scalar IntersectionExampleScenario.node[562].appl 	VehicleRemoved 	0
scalar IntersectionExampleScenario.node[562].appl 	ArrivedAtDest 	0
scalar IntersectionExampleScenario.node[562].appl 	IntersectionEnterTime 	1796.75
scalar IntersectionExampleScenario.node[562].appl 	IntersectionExitTime 	-1
scalar IntersectionExampleScenario.node[562].appl 	NumberOfCollisions 	0
scalar IntersectionExampleScenario.node[562].nic.phy80211p 	busyTime 	0
scalar IntersectionExampleScenario.node[562].nic.mac1609_4 	ReceivedUnicastPackets 	0
scalar IntersectionExampleScenario.node[562].nic.mac1609_4 	ReceivedBroadcasts 	0
scalar IntersectionExampleScenario.node[562].nic.mac1609_4 	SentPackets 	0
scalar IntersectionExampleScenario.node[562].nic.mac1609_4 	SNIRLostPackets 	0
scalar IntersectionExampleScenario.node[562].nic.mac1609_4 	RXTXLostPackets 	0
scalar IntersectionExampleScenario.node[562].nic.mac1609_4 	TotalLostPackets 	0
scalar IntersectionExampleScenario.node[562].nic.mac1609_4 	DroppedPacketsInMac 	0
scalar IntersectionExampleScenario.node[562].nic.mac1609_4 	TooLittleTime 	0
scalar IntersectionExampleScenario.node[562].nic.mac1609_4 	TimesIntoBackoff 	0
scalar IntersectionExampleScenario.node[562].nic.mac1609_4 	SlotsBackoff 	0
scalar IntersectionExampleScenario.node[562].nic.mac1609_4 	NumInternalContention 	0
scalar IntersectionExampleScenario.node[562].nic.mac1609_4 	totalBusyTime 	0
scalar IntersectionExampleScenario.node[562].veinsmobility 	startTime 	1796.75
scalar IntersectionExampleScenario.node[562].veinsmobility 	totalTime 	3.25
scalar IntersectionExampleScenario.node[562].veinsmobility 	stopTime 	1800
scalar IntersectionExampleScenario.node[562].veinsmobility 	minSpeed 	5.6500000953674
scalar IntersectionExampleScenario.node[562].veinsmobility 	maxSpeed 	13.14999961853
scalar IntersectionExampleScenario.node[562].veinsmobility 	totalDistance 	29.846740722656
scalar IntersectionExampleScenario.node[562].veinsmobility 	totalCO2Emission 	22.582438530969
