file 21044625 1591417975                                        
version 2
run nodebug-21-20200606-00:29:31-5072
attr configname nodebug
attr datetime 20200606-00:29:31
attr experiment nodebug
attr inifile omnetpp.ini
attr iterationvars ""
attr iterationvars2 $repetition=21
attr measurement ""
attr network "\"org.car2x.veins.modules.application.ExtTraCIScenarioManagerLaunchd.IntersectionExampleScenario\""
attr processid 5072
attr repetition 21
attr replication #21
attr resultdir results
attr runnumber 21
attr seedset 21
param **.coreDebug false
param **.debug false
param *.**.nic.mac1609_4.bitrate 18Mbps
param *.**.nic.mac1609_4.txPower 20mW
param *.**.nic.mac1609_4.useServiceChannel false
param *.**.nic.phy80211p.analogueModels "xmldoc(\"config.xml\")"
param *.**.nic.phy80211p.decider "xmldoc(\"config.xml\")"
param *.**.nic.phy80211p.sensitivity -89dBm
param *.**.nic.phy80211p.thermalNoise -110dBm
param *.**.nic.phy80211p.usePropagationDelay true
param *.**.nic.phy80211p.useThermalNoise true
param *.annotations.draw false
param *.connectionManager.alpha 2.0
param *.connectionManager.carrierFrequency "5.890e9 Hz"
param *.connectionManager.pMax 20mW
param *.connectionManager.sat -89dBm
param *.connectionManager.sendDirect true
param *.manager.autoShutdown true
param *.manager.host "\"localhost\""
param *.manager.launchConfig "xmldoc(\"paramics.launchd.xml\")"
param *.manager.margin 25
param *.manager.moduleDisplayString "\"\""
param *.manager.moduleName "\"node\""
param *.manager.moduleType "\"org.car2x.veins.nodes.Car\""
param *.manager.port 9999
param *.manager.updateInterval 250ms
param *.node[*0].veinsmobility.accidentCount 0
param *.node[*0].veinsmobility.accidentDuration 30s
param *.node[*0].veinsmobility.accidentStart 75s
param *.node[*].appl.LiderSelectZoneRadio 55.0
param *.node[*].appl.ShareDataZoneRadio 110.0
param *.node[*].appl.TiempoSemaforo 30.0
param *.node[*].appl.beaconInterval 1s
param *.node[*].appl.beaconPriority 3
param *.node[*].appl.dataOnSch false
param *.node[*].appl.dataPriority 2
param *.node[*].appl.debug false
param *.node[*].appl.headerLength "256 bit"
param *.node[*].appl.maxOffset 0.005s
param *.node[*].appl.sendBeacons false
param *.node[*].appl.sendData true
param *.node[*].applType "\"Dummy\""
param *.node[*].mobilityType "\"TraCIMobility\""
param *.node[*].mobilityType.debug true
param *.node[*].veinsmobility.x 0
param *.node[*].veinsmobility.y 0
param *.node[*].veinsmobility.z 1.895
param *.node[*].veinsmobilityType "\"org.car2x.veins.modules.mobility.traci.TraCIMobility\""
param *.node[*].veinsmobilityType.debug true
param *.playgroundSizeX 8500m
param *.playgroundSizeY 8500m
param *.playgroundSizeZ 50m
param *.world.use2D false
param *.world.useTorus false

vector 43050  IntersectionExampleScenario.manager  vehiclesinsim  ETV
attr type  int
vector 43051  IntersectionExampleScenario.manager  realtime  ETV
attr type  int
attr unit  s
vector 43054  IntersectionExampleScenario.node[0].veinsmobility  posx  ETV
vector 43055  IntersectionExampleScenario.node[0].veinsmobility  posy  ETV
vector 43056  IntersectionExampleScenario.node[0].veinsmobility  speed  ETV
vector 43057  IntersectionExampleScenario.node[0].veinsmobility  acceleration  ETV
vector 43058  IntersectionExampleScenario.node[0].veinsmobility  co2emission  ETV
vector 43061  IntersectionExampleScenario.node[1].veinsmobility  posx  ETV
vector 43062  IntersectionExampleScenario.node[1].veinsmobility  posy  ETV
vector 43068  IntersectionExampleScenario.node[2].veinsmobility  posx  ETV
vector 43069  IntersectionExampleScenario.node[2].veinsmobility  posy  ETV
vector 43075  IntersectionExampleScenario.node[3].veinsmobility  posx  ETV
vector 43076  IntersectionExampleScenario.node[3].veinsmobility  posy  ETV
vector 43063  IntersectionExampleScenario.node[1].veinsmobility  speed  ETV
vector 43070  IntersectionExampleScenario.node[2].veinsmobility  speed  ETV
vector 43064  IntersectionExampleScenario.node[1].veinsmobility  acceleration  ETV
vector 43065  IntersectionExampleScenario.node[1].veinsmobility  co2emission  ETV
vector 43071  IntersectionExampleScenario.node[2].veinsmobility  acceleration  ETV
vector 43072  IntersectionExampleScenario.node[2].veinsmobility  co2emission  ETV
vector 43077  IntersectionExampleScenario.node[3].veinsmobility  speed  ETV
vector 43078  IntersectionExampleScenario.node[3].veinsmobility  acceleration  ETV
vector 43079  IntersectionExampleScenario.node[3].veinsmobility  co2emission  ETV
vector 43082  IntersectionExampleScenario.node[4].veinsmobility  posx  ETV
vector 43083  IntersectionExampleScenario.node[4].veinsmobility  posy  ETV
vector 43084  IntersectionExampleScenario.node[4].veinsmobility  speed  ETV
vector 43085  IntersectionExampleScenario.node[4].veinsmobility  acceleration  ETV
vector 43086  IntersectionExampleScenario.node[4].veinsmobility  co2emission  ETV
vector 43089  IntersectionExampleScenario.node[5].veinsmobility  posx  ETV
vector 43090  IntersectionExampleScenario.node[5].veinsmobility  posy  ETV
vector 43091  IntersectionExampleScenario.node[5].veinsmobility  speed  ETV
vector 43092  IntersectionExampleScenario.node[5].veinsmobility  acceleration  ETV
vector 43093  IntersectionExampleScenario.node[5].veinsmobility  co2emission  ETV
vector 43096  IntersectionExampleScenario.node[6].veinsmobility  posx  ETV
vector 43097  IntersectionExampleScenario.node[6].veinsmobility  posy  ETV
vector 43098  IntersectionExampleScenario.node[6].veinsmobility  speed  ETV
vector 43099  IntersectionExampleScenario.node[6].veinsmobility  acceleration  ETV
vector 43100  IntersectionExampleScenario.node[6].veinsmobility  co2emission  ETV
vector 43103  IntersectionExampleScenario.node[7].veinsmobility  posx  ETV
vector 43104  IntersectionExampleScenario.node[7].veinsmobility  posy  ETV
vector 43105  IntersectionExampleScenario.node[7].veinsmobility  speed  ETV
vector 43106  IntersectionExampleScenario.node[7].veinsmobility  acceleration  ETV
vector 43107  IntersectionExampleScenario.node[7].veinsmobility  co2emission  ETV
vector 43110  IntersectionExampleScenario.node[8].veinsmobility  posx  ETV
vector 43111  IntersectionExampleScenario.node[8].veinsmobility  posy  ETV
vector 43112  IntersectionExampleScenario.node[8].veinsmobility  speed  ETV
vector 43113  IntersectionExampleScenario.node[8].veinsmobility  acceleration  ETV
vector 43114  IntersectionExampleScenario.node[8].veinsmobility  co2emission  ETV
vector 43117  IntersectionExampleScenario.node[9].veinsmobility  posx  ETV
vector 43118  IntersectionExampleScenario.node[9].veinsmobility  posy  ETV
vector 43119  IntersectionExampleScenario.node[9].veinsmobility  speed  ETV
vector 43120  IntersectionExampleScenario.node[9].veinsmobility  acceleration  ETV
vector 43121  IntersectionExampleScenario.node[9].veinsmobility  co2emission  ETV
vector 43124  IntersectionExampleScenario.node[10].veinsmobility  posx  ETV
vector 43125  IntersectionExampleScenario.node[10].veinsmobility  posy  ETV
vector 43126  IntersectionExampleScenario.node[10].veinsmobility  speed  ETV
vector 43127  IntersectionExampleScenario.node[10].veinsmobility  acceleration  ETV
vector 43128  IntersectionExampleScenario.node[10].veinsmobility  co2emission  ETV
vector 43131  IntersectionExampleScenario.node[11].veinsmobility  posx  ETV
vector 43132  IntersectionExampleScenario.node[11].veinsmobility  posy  ETV
vector 43133  IntersectionExampleScenario.node[11].veinsmobility  speed  ETV
vector 43134  IntersectionExampleScenario.node[11].veinsmobility  acceleration  ETV
vector 43135  IntersectionExampleScenario.node[11].veinsmobility  co2emission  ETV
vector 43138  IntersectionExampleScenario.node[12].veinsmobility  posx  ETV
vector 43139  IntersectionExampleScenario.node[12].veinsmobility  posy  ETV
vector 43140  IntersectionExampleScenario.node[12].veinsmobility  speed  ETV
43058	7928 5091 16 2493 2.75 43 162 0.973 11.200708441096 476.52636254327 2372.1215779625
43057	13019 4534 16 2493 2.75 43 162 -3.2470817565918 2.5 35.964826583862 213.14302812485
43056	17553 4983 13 2493 2.5 43 163 5.6500000953674 15.02499961853 2211.394733429 30760.821906422
43055	22536 5275 10 2493 2.25 43 164 235.62908935547 486.85000610352 71029.524108887 31766407.044831
43054	27811 5279 10 2493 2.25 43 164 482.92657470703 785.82187652588 93719.542686462 55370203.719173
vector 43141  IntersectionExampleScenario.node[12].veinsmobility  acceleration  ETV
vector 43142  IntersectionExampleScenario.node[12].veinsmobility  co2emission  ETV
vector 43145  IntersectionExampleScenario.node[13].veinsmobility  posx  ETV
vector 43146  IntersectionExampleScenario.node[13].veinsmobility  posy  ETV
vector 43147  IntersectionExampleScenario.node[13].veinsmobility  speed  ETV
vector 43148  IntersectionExampleScenario.node[13].veinsmobility  acceleration  ETV
vector 43149  IntersectionExampleScenario.node[13].veinsmobility  co2emission  ETV
43079	33660 4883 59 2573 5 44 157 0.973 12.099024792222 532.10962538949 3043.4374626398
43078	38543 4734 59 2573 5 44 157 -3.7528343200684 2.5 41.465581893921 302.40241420202
43077	43277 4824 50 2573 4.75 44 158 5.6500000953674 16.27499961853 2179.6455583572 31556.474467454
43076	48101 5140 41 2573 4.5 44 159 237.81408691406 483.14999389648 68598.733947754 30518650.226125
43075	53241 5117 41 2573 4.5 44 159 184.17810058594 483.14999389648 63393.410186768 26998066.868349
vector 43152  IntersectionExampleScenario.node[14].veinsmobility  posx  ETV
vector 43153  IntersectionExampleScenario.node[14].veinsmobility  posy  ETV
vector 43154  IntersectionExampleScenario.node[14].veinsmobility  speed  ETV
vector 43155  IntersectionExampleScenario.node[14].veinsmobility  acceleration  ETV
vector 43156  IntersectionExampleScenario.node[14].veinsmobility  co2emission  ETV
vector 43159  IntersectionExampleScenario.node[15].veinsmobility  posx  ETV
vector 43160  IntersectionExampleScenario.node[15].veinsmobility  posy  ETV
vector 43161  IntersectionExampleScenario.node[15].veinsmobility  speed  ETV
vector 43162  IntersectionExampleScenario.node[15].veinsmobility  acceleration  ETV
vector 43163  IntersectionExampleScenario.node[15].veinsmobility  co2emission  ETV
vector 43166  IntersectionExampleScenario.node[16].veinsmobility  posx  ETV
vector 43167  IntersectionExampleScenario.node[16].veinsmobility  posy  ETV
vector 43173  IntersectionExampleScenario.node[17].veinsmobility  posx  ETV
vector 43174  IntersectionExampleScenario.node[17].veinsmobility  posy  ETV
vector 43168  IntersectionExampleScenario.node[16].veinsmobility  speed  ETV
vector 43169  IntersectionExampleScenario.node[16].veinsmobility  acceleration  ETV
vector 43170  IntersectionExampleScenario.node[16].veinsmobility  co2emission  ETV
vector 43175  IntersectionExampleScenario.node[17].veinsmobility  speed  ETV
vector 43176  IntersectionExampleScenario.node[17].veinsmobility  acceleration  ETV
vector 43177  IntersectionExampleScenario.node[17].veinsmobility  co2emission  ETV
43065	59962 5464 50 3100 4.75 49.5 180 0.973 12.099024792222 576.97134905743 3244.3463221559
43064	65426 4802 50 3100 4.75 49.5 180 -9.2126445770264 4 41.396924972534 525.32208356757
43063	70228 5345 41 3100 4.5 49.5 181 0 16.27499961853 2208.8033750057 32581.164432489
43062	75573 5889 34 3100 4.25 49.5 182 238.08117675781 785.82187652588 94469.559043884 53023891.661923
43061	81462 5905 34 3100 4.25 49.5 182 483.14999389648 483.14999389648 87933.29888916 42484972.821595
vector 43180  IntersectionExampleScenario.node[18].veinsmobility  posx  ETV
vector 43181  IntersectionExampleScenario.node[18].veinsmobility  posy  ETV
vector 43182  IntersectionExampleScenario.node[18].veinsmobility  speed  ETV
vector 43183  IntersectionExampleScenario.node[18].veinsmobility  acceleration  ETV
vector 43184  IntersectionExampleScenario.node[18].veinsmobility  co2emission  ETV
43100	87768 5102 455 3633 14 54.75 164 0.973 11.648172402475 562.65720352337 3466.3274606423
43099	92870 4868 455 3633 14 54.75 164 -3.6110057830811 2.5 38.001859664917 372.57334558954
43098	97738 5092 440 3633 13.75 54.75 165 5.6500000953674 15.64999961853 2184.1245312691 30253.059093737
43097	102830 5438 425 3633 13.5 54.75 166 486.73022460938 785.82187652588 94950.518470764 56061120.638081
43096	108268 5441 425 3633 13.5 54.75 166 236.74688720703 483.14999389648 71958.104919434 32132254.762752
43072	113709 6925 50 4639 4.75 65.25 243 0.973 11.810082123732 616.10994275247 3075.3163877883
43071	120634 6364 50 4639 4.75 65.25 243 -6.8118047714233 4 38.850629806519 475.00786256743
43070	126998 6554 41 4639 4.5 65.25 244 0 15.875 2186.7030787468 30970.846362289
43069	133552 7961 34 4639 4.25 65.25 245 184.17810058594 483.36395263672 103609.27850342 45853762.587667
43068	141513 7909 34 4639 4.25 65.25 245 486.85000610352 735.24140930176 127530.15409851 67468043.891993
43086	149422 6923 234 4715 9.75 66.25 227 0.973 11.90022389248 606.09640266597 3092.5957208371
43085	156345 7035 234 4715 9.75 66.25 227 -3.8025722503662 2.5 40.208654403687 388.86993889237
43084	163380 7060 223 4715 9.5 66.25 228 0 16 2210.0932692178 31051.852702835
43083	170440 7459 212 4715 9.25 66.25 229 184.17810058594 487.05899047852 95780.908050537 42021335.801741
43082	177899 7491 212 4715 9.25 66.25 229 236.22705078125 486.85000610352 103280.5291748 47655793.620333
vector 43187  IntersectionExampleScenario.node[19].veinsmobility  posx  ETV
vector 43188  IntersectionExampleScenario.node[19].veinsmobility  posy  ETV
vector 43189  IntersectionExampleScenario.node[19].veinsmobility  speed  ETV
43121	185622 5546 1222 4942 24.75 69.5 180 0.973 11.450879080643 526.71051440069 2732.6319130387
43120	191168 5564 1222 4942 24.75 69.5 180 -2.3656158447266 2.5 36.813589096069 273.71894195799
43119	196732 5692 1201 4942 24.5 69.5 181 4.7825918197632 15.375 2213.8570966721 29117.45173611
43118	202424 5977 1180 4942 24.25 69.5 182 184.17810058594 486.87005615234 73174.826416016 31249790.261926
43117	208401 5989 1180 4942 24.25 69.5 182 235.42468261719 486.85000610352 79903.437255859 36123192.357181
vector 43190  IntersectionExampleScenario.node[19].veinsmobility  acceleration  ETV
vector 43191  IntersectionExampleScenario.node[19].veinsmobility  co2emission  ETV
vector 43194  IntersectionExampleScenario.node[20].veinsmobility  posx  ETV
vector 43195  IntersectionExampleScenario.node[20].veinsmobility  posy  ETV
vector 43196  IntersectionExampleScenario.node[20].veinsmobility  speed  ETV
vector 43197  IntersectionExampleScenario.node[20].veinsmobility  acceleration  ETV
vector 43198  IntersectionExampleScenario.node[20].veinsmobility  co2emission  ETV
vector 43201  IntersectionExampleScenario.node[21].veinsmobility  posx  ETV
vector 43202  IntersectionExampleScenario.node[21].veinsmobility  posy  ETV
vector 43203  IntersectionExampleScenario.node[21].veinsmobility  speed  ETV
vector 43204  IntersectionExampleScenario.node[21].veinsmobility  acceleration  ETV
vector 43205  IntersectionExampleScenario.node[21].veinsmobility  co2emission  ETV
vector 43208  IntersectionExampleScenario.node[22].veinsmobility  posx  ETV
vector 43209  IntersectionExampleScenario.node[22].veinsmobility  posy  ETV
vector 43215  IntersectionExampleScenario.node[23].veinsmobility  posx  ETV
vector 43216  IntersectionExampleScenario.node[23].veinsmobility  posy  ETV
vector 43210  IntersectionExampleScenario.node[22].veinsmobility  speed  ETV
vector 43222  IntersectionExampleScenario.node[24].veinsmobility  posx  ETV
vector 43223  IntersectionExampleScenario.node[24].veinsmobility  posy  ETV
vector 43229  IntersectionExampleScenario.node[25].veinsmobility  posx  ETV
vector 43230  IntersectionExampleScenario.node[25].veinsmobility  posy  ETV
vector 43211  IntersectionExampleScenario.node[22].veinsmobility  acceleration  ETV
vector 43212  IntersectionExampleScenario.node[22].veinsmobility  co2emission  ETV
vector 43217  IntersectionExampleScenario.node[23].veinsmobility  speed  ETV
vector 43218  IntersectionExampleScenario.node[23].veinsmobility  acceleration  ETV
vector 43219  IntersectionExampleScenario.node[23].veinsmobility  co2emission  ETV
vector 43224  IntersectionExampleScenario.node[24].veinsmobility  speed  ETV
vector 43231  IntersectionExampleScenario.node[25].veinsmobility  speed  ETV
vector 43225  IntersectionExampleScenario.node[24].veinsmobility  acceleration  ETV
vector 43226  IntersectionExampleScenario.node[24].veinsmobility  co2emission  ETV
vector 43232  IntersectionExampleScenario.node[25].veinsmobility  acceleration  ETV
vector 43233  IntersectionExampleScenario.node[25].veinsmobility  co2emission  ETV
vector 43236  IntersectionExampleScenario.node[26].veinsmobility  posx  ETV
vector 43237  IntersectionExampleScenario.node[26].veinsmobility  posy  ETV
vector 43243  IntersectionExampleScenario.node[27].veinsmobility  posx  ETV
vector 43244  IntersectionExampleScenario.node[27].veinsmobility  posy  ETV
vector 43238  IntersectionExampleScenario.node[26].veinsmobility  speed  ETV
vector 43239  IntersectionExampleScenario.node[26].veinsmobility  acceleration  ETV
vector 43240  IntersectionExampleScenario.node[26].veinsmobility  co2emission  ETV
vector 43245  IntersectionExampleScenario.node[27].veinsmobility  speed  ETV
vector 43246  IntersectionExampleScenario.node[27].veinsmobility  acceleration  ETV
vector 43247  IntersectionExampleScenario.node[27].veinsmobility  co2emission  ETV
43093	217767 7684 282 5766 10.75 79 274 0.973 11.810082123732 647.75352692279 3117.3648247644
43092	225451 7087 282 5766 10.75 79 274 -23.986110687256 4 38.850629806519 973.35421393116
43091	232538 7107 269 5766 10.5 79 275 0 15.875 2170.2508459091 31032.637019574
43090	239645 8987 256 5766 10.25 79 276 238.59930419922 483.14999389648 125345.887146 57994818.68401
43089	248632 9038 256 5766 10.25 79 276 184.17810058594 483.36395263672 118254.47653198 52771726.601881
43107	257670 7208 594 5766 16.25 79 252 0.973 11.90022389248 633.89740992329 3153.6665106542
43106	264878 6535 594 5766 16.25 79 252 -7.2641291618347 4 39.699392318726 488.74806203163
43105	271413 6834 577 5766 16 79 253 0 16 2217.2994669676 32035.832177997
43104	278247 8356 560 5766 15.75 79 254 486.85000610352 486.85000610352 123659.90155029 60203823.82452
43103	286603 8345 560 5766 15.75 79 254 235.46020507812 785.82187652588 130170.20258331 70847027.23119
43114	294948 7525 819 5940 19.5 80.5 245 0.973 11.810082123732 626.18171141488 3094.7547432878
43113	302473 7519 819 5940 19.5 80.5 245 -4.5 2.5 39.699392318726 436.72975484888
43112	309992 7541 800 5940 19.25 80.5 246 0 15.875 2232.0415611453 31440.230427899
43111	317533 8131 781 5940 19 80.5 247 486.85000610352 733.87940979004 128312.9669342 67716690.577262
43110	325664 8124 781 5940 19 80.5 247 486.85000610352 797.07032012939 136515.63447571 77628517.892485
vector 43250  IntersectionExampleScenario.node[28].veinsmobility  posx  ETV
vector 43251  IntersectionExampleScenario.node[28].veinsmobility  posy  ETV
vector 43252  IntersectionExampleScenario.node[28].veinsmobility  speed  ETV
vector 43253  IntersectionExampleScenario.node[28].veinsmobility  acceleration  ETV
vector 43254  IntersectionExampleScenario.node[28].veinsmobility  co2emission  ETV
vector 43257  IntersectionExampleScenario.node[29].veinsmobility  posx  ETV
vector 43258  IntersectionExampleScenario.node[29].veinsmobility  posy  ETV
vector 43264  IntersectionExampleScenario.node[30].veinsmobility  posx  ETV
vector 43265  IntersectionExampleScenario.node[30].veinsmobility  posy  ETV
vector 43259  IntersectionExampleScenario.node[29].veinsmobility  speed  ETV
vector 43266  IntersectionExampleScenario.node[30].veinsmobility  speed  ETV
vector 43260  IntersectionExampleScenario.node[29].veinsmobility  acceleration  ETV
vector 43261  IntersectionExampleScenario.node[29].veinsmobility  co2emission  ETV
vector 43267  IntersectionExampleScenario.node[30].veinsmobility  acceleration  ETV
vector 43268  IntersectionExampleScenario.node[30].veinsmobility  co2emission  ETV
43142	334991 5186 2512 6421 43.25 84.5 166 0.973 11.36141391502 534.78780202064 3141.0560939998
43141	340177 5073 2512 6421 43.25 84.5 166 -3.51438331604 2.5 36.134572982788 326.16471844591
43140	345250 5180 2493 6421 43 84.5 167 5.6500000953674 15.25 2186.651245594 29795.955696088
43139	350430 5521 2474 6421 42.75 84.5 168 235.74993896484 483.14999389648 72623.188537598 32365823.124931
43138	355951 5518 2474 6421 42.75 84.5 168 184.17810058594 483.14999389648 66856.134216309 28382510.022298
vector 43271  IntersectionExampleScenario.node[31].veinsmobility  posx  ETV
vector 43272  IntersectionExampleScenario.node[31].veinsmobility  posy  ETV
vector 43278  IntersectionExampleScenario.node[32].veinsmobility  posx  ETV
vector 43279  IntersectionExampleScenario.node[32].veinsmobility  posy  ETV
vector 43273  IntersectionExampleScenario.node[31].veinsmobility  speed  ETV
vector 43274  IntersectionExampleScenario.node[31].veinsmobility  acceleration  ETV
vector 43275  IntersectionExampleScenario.node[31].veinsmobility  co2emission  ETV
vector 43280  IntersectionExampleScenario.node[32].veinsmobility  speed  ETV
vector 43281  IntersectionExampleScenario.node[32].veinsmobility  acceleration  ETV
vector 43282  IntersectionExampleScenario.node[32].veinsmobility  co2emission  ETV
43156	362271 5178 2661 6600 45 85.75 164 0.973 11.44702121576 516.90647282112 2768.2834718365
43155	367449 5442 2661 6600 45 85.75 164 -3.7399711608887 2.5 36.750490188599 270.09997955062
43154	372891 5399 2638 6600 44.75 85.75 165 5.6500000953674 15.369613647461 2200.9808692932 30377.42634743
43153	378290 5463 2615 6600 44.5 85.75 166 238.27337646484 486.85000610352 72170.458435059 32352694.368233
43152	383753 5461 2615 6600 44.5 85.75 166 483.14999389648 785.82187652588 94692.128623962 55838530.117361
43163	389214 4953 2918 6674 47.75 86.25 155 0.973 11.90022389248 528.04077433252 3037.4653489935
43162	394167 4754 2918 6674 47.75 86.25 155 -4.5 2.5 40.378400802612 293.37040723375
43161	398921 4848 2893 6674 47.5 86.25 156 5.6500000953674 16 2213.7433300018 32462.96257931
43160	403769 5143 2868 6674 47.25 86.25 157 483.14999389648 734.25106811523 84073.821548462 45965427.639336
43159	408912 5154 2868 6674 47.25 86.25 157 184.17810058594 487.07092285156 62471.845275879 26614582.994901
vector 43285  IntersectionExampleScenario.node[33].veinsmobility  posx  ETV
vector 43286  IntersectionExampleScenario.node[33].veinsmobility  posy  ETV
vector 43287  IntersectionExampleScenario.node[33].veinsmobility  speed  ETV
vector 43288  IntersectionExampleScenario.node[33].veinsmobility  acceleration  ETV
vector 43289  IntersectionExampleScenario.node[33].veinsmobility  co2emission  ETV
vector 43292  IntersectionExampleScenario.node[34].veinsmobility  posx  ETV
vector 43293  IntersectionExampleScenario.node[34].veinsmobility  posy  ETV
vector 43294  IntersectionExampleScenario.node[34].veinsmobility  speed  ETV
vector 43295  IntersectionExampleScenario.node[34].veinsmobility  acceleration  ETV
vector 43296  IntersectionExampleScenario.node[34].veinsmobility  co2emission  ETV
vector 43299  IntersectionExampleScenario.node[35].veinsmobility  posx  ETV
vector 43300  IntersectionExampleScenario.node[35].veinsmobility  posy  ETV
vector 43301  IntersectionExampleScenario.node[35].veinsmobility  speed  ETV
vector 43302  IntersectionExampleScenario.node[35].veinsmobility  acceleration  ETV
vector 43303  IntersectionExampleScenario.node[35].veinsmobility  co2emission  ETV
vector 43306  IntersectionExampleScenario.node[36].veinsmobility  posx  ETV
vector 43307  IntersectionExampleScenario.node[36].veinsmobility  posy  ETV
vector 43313  IntersectionExampleScenario.node[37].veinsmobility  posx  ETV
vector 43314  IntersectionExampleScenario.node[37].veinsmobility  posy  ETV
vector 43308  IntersectionExampleScenario.node[36].veinsmobility  speed  ETV
vector 43315  IntersectionExampleScenario.node[37].veinsmobility  speed  ETV
vector 43309  IntersectionExampleScenario.node[36].veinsmobility  acceleration  ETV
vector 43310  IntersectionExampleScenario.node[36].veinsmobility  co2emission  ETV
vector 43316  IntersectionExampleScenario.node[37].veinsmobility  acceleration  ETV
vector 43317  IntersectionExampleScenario.node[37].veinsmobility  co2emission  ETV
43128	416071 7215 1853 8113 33.5 95.75 250 0.973 11.36141391502 596.14482218707 2782.8747567263
43127	423286 6690 1853 8113 33.5 95.75 250 -6.6724100112915 4 35.964826583862 444.32847364751
43126	429976 6868 1834 8113 33.25 95.75 251 0 15.25 2177.4755690098 29604.129888559
43125	436844 8309 1815 8113 33 95.75 252 486.63604736328 785.82187652588 137889.19133759 77532874.741587
43124	445153 8243 1815 8113 33 95.75 252 236.85040283203 483.14999389648 113263.13262939 52012964.854501
43170	453396 5800 3046 8277 49 96.75 192 0.97223939240464 11.648172402475 549.78496176316 2883.6570828215
43169	459196 5843 3046 8277 49 96.75 192 -2.1208915710449 2.5 38.680875778198 306.38582501302
43168	465039 6110 3019 8277 48.75 96.75 193 1.6667211055756 15.64999961853 2210.8522316217 29528.353789299
43167	471149 6397 2993 8277 48.5 96.75 194 483.14999389648 785.82187652588 109225.91016388 63348137.305045
43166	477546 6396 2993 8277 48.5 96.75 194 483.14999389648 733.6547088623 102132.01831055 54805315.962473
vector 43320  IntersectionExampleScenario.node[38].veinsmobility  posx  ETV
vector 43321  IntersectionExampleScenario.node[38].veinsmobility  posy  ETV
vector 43322  IntersectionExampleScenario.node[38].veinsmobility  speed  ETV
vector 43323  IntersectionExampleScenario.node[38].veinsmobility  acceleration  ETV
vector 43324  IntersectionExampleScenario.node[38].veinsmobility  co2emission  ETV
vector 43327  IntersectionExampleScenario.node[39].veinsmobility  posx  ETV
vector 43328  IntersectionExampleScenario.node[39].veinsmobility  posy  ETV
vector 43329  IntersectionExampleScenario.node[39].veinsmobility  speed  ETV
vector 43330  IntersectionExampleScenario.node[39].veinsmobility  acceleration  ETV
vector 43331  IntersectionExampleScenario.node[39].veinsmobility  co2emission  ETV
vector 43334  IntersectionExampleScenario.node[40].veinsmobility  posx  ETV
vector 43335  IntersectionExampleScenario.node[40].veinsmobility  posy  ETV
vector 43336  IntersectionExampleScenario.node[40].veinsmobility  speed  ETV
vector 43341  IntersectionExampleScenario.node[41].veinsmobility  posx  ETV
vector 43342  IntersectionExampleScenario.node[41].veinsmobility  posy  ETV
vector 43337  IntersectionExampleScenario.node[40].veinsmobility  acceleration  ETV
vector 43338  IntersectionExampleScenario.node[40].veinsmobility  co2emission  ETV
vector 43343  IntersectionExampleScenario.node[41].veinsmobility  speed  ETV
vector 43344  IntersectionExampleScenario.node[41].veinsmobility  acceleration  ETV
vector 43345  IntersectionExampleScenario.node[41].veinsmobility  co2emission  ETV
vector 43348  IntersectionExampleScenario.node[42].veinsmobility  posx  ETV
vector 43349  IntersectionExampleScenario.node[42].veinsmobility  posy  ETV
vector 43355  IntersectionExampleScenario.node[43].veinsmobility  posx  ETV
vector 43356  IntersectionExampleScenario.node[43].veinsmobility  posy  ETV
vector 43350  IntersectionExampleScenario.node[42].veinsmobility  speed  ETV
vector 43351  IntersectionExampleScenario.node[42].veinsmobility  acceleration  ETV
vector 43352  IntersectionExampleScenario.node[42].veinsmobility  co2emission  ETV
vector 43357  IntersectionExampleScenario.node[43].veinsmobility  speed  ETV
vector 43358  IntersectionExampleScenario.node[43].veinsmobility  acceleration  ETV
vector 43359  IntersectionExampleScenario.node[43].veinsmobility  co2emission  ETV
43191	486348 4833 4959 9872 69.75 106.75 149 0.973 12.099024792222 489.0549849157 2759.7990548981
43190	491181 4450 4959 9872 69.75 106.75 149 -3.3615646362305 2.5 41.227170944214 211.90550692683
43189	495631 4725 4942 9872 69.5 106.75 150 5.6500000953674 16.27499961853 2215.6485786438 33537.560062301
43188	500356 5006 4925 9872 69.25 106.75 151 237.31915283203 785.82187652588 78917.34778595 45240598.539291
43187	505362 5013 4925 9872 69.25 106.75 151 483.14999389648 483.14999389648 72955.649078369 35248521.406928
vector 43362  IntersectionExampleScenario.node[44].veinsmobility  posx  ETV
vector 43363  IntersectionExampleScenario.node[44].veinsmobility  posy  ETV
vector 43364  IntersectionExampleScenario.node[44].veinsmobility  speed  ETV
vector 43365  IntersectionExampleScenario.node[44].veinsmobility  acceleration  ETV
vector 43366  IntersectionExampleScenario.node[44].veinsmobility  co2emission  ETV
vector 43369  IntersectionExampleScenario.node[45].veinsmobility  posx  ETV
vector 43370  IntersectionExampleScenario.node[45].veinsmobility  posy  ETV
43135	510930 7946 2321 10457 40.5 110.25 280 0.973 11.810082123732 654.53701924175 3118.0094292024
43134	518876 7096 2321 10457 40.5 110.25 280 -10.877279281616 4 38.850629806519 584.46134712091
43133	525972 7371 2304 10457 40.25 110.25 281 0 15.875 2185.3626227379 31171.972375902
43132	533343 9335 2287 10457 40 110.25 282 184.17810058594 483.36395263672 121087.91400146 54109957.08602
43131	542678 9284 2287 10457 40 110.25 282 486.85000610352 735.24140930176 145543.60432434 76237892.244384
vector 43371  IntersectionExampleScenario.node[45].veinsmobility  speed  ETV
vector 43372  IntersectionExampleScenario.node[45].veinsmobility  acceleration  ETV
vector 43373  IntersectionExampleScenario.node[45].veinsmobility  co2emission  ETV
43149	552209 8130 2573 10579 44 111 269 0.973 11.90022389248 668.69744421158 3218.2414316818
43148	560339 7567 2573 10579 44 111 269 -4.5 2.5 41.396924972534 453.52157109033
43147	567906 8050 2552 10579 43.75 111 270 0 16.008113861084 2247.4983252753 32452.279383794
43146	575956 8960 2531 10579 43.5 111 271 174.53436279297 486.86566162109 114757.76040649 50803898.509427
43145	584916 8994 2531 10579 43.5 111 271 236.51678466797 486.85000610352 123884.72045898 57734185.881226
vector 43376  IntersectionExampleScenario.node[46].veinsmobility  posx  ETV
vector 43377  IntersectionExampleScenario.node[46].veinsmobility  posy  ETV
vector 43378  IntersectionExampleScenario.node[46].veinsmobility  speed  ETV
vector 43379  IntersectionExampleScenario.node[46].veinsmobility  acceleration  ETV
vector 43380  IntersectionExampleScenario.node[46].veinsmobility  co2emission  ETV
43177	594311 7857 3073 10978 49.25 113.5 258 0.973 11.648172402475 620.7089849335 2973.9285011768
43176	602168 8152 3073 10978 49.25 113.5 258 -3.8728353977203 2.5 38.511121749878 339.53427297518
43175	610320 8369 3046 10978 49 113.5 259 0 15.64999961853 2218.7558862064 29227.8230215
43174	618689 8615 3019 10978 48.75 113.5 260 184.17810058594 733.90977478027 116887.66189575 56724911.370175
43173	627304 8660 3019 10978 48.75 113.5 260 486.85000610352 486.85000610352 126581.00158691 61625961.395178
vector 43383  IntersectionExampleScenario.node[47].veinsmobility  posx  ETV
vector 43384  IntersectionExampleScenario.node[47].veinsmobility  posy  ETV
vector 43385  IntersectionExampleScenario.node[47].veinsmobility  speed  ETV
vector 43386  IntersectionExampleScenario.node[47].veinsmobility  acceleration  ETV
vector 43387  IntersectionExampleScenario.node[47].veinsmobility  co2emission  ETV
43184	636365 7689 3483 11283 53.25 115.5 250 0.973 11.648172402475 614.64729687623 2910.671641844
43183	644054 7763 3483 11283 53.25 115.5 250 -4.10400390625 2.5 38.850629806519 360.9209556121
43182	651817 8187 3458 11283 53 115.5 251 0 15.64999961853 2248.1552795675 29653.89682553
43181	660004 8365 3432 11283 52.75 115.5 252 177.97814941406 734.88436889648 111959.85295105 54057800.91853
43180	668369 8412 3432 11283 52.75 115.5 252 486.85000610352 486.85003662109 122686.2015686 59729777.997349
43198	676781 5739 5103 11629 72 117.75 184 0.973 11.648172402475 558.37537088919 3032.3848945587
43197	682520 5516 5103 11629 72 117.75 184 -3.5576667785645 2.5 38.850629806519 327.92175782699
43196	688036 5927 5086 11629 71.75 117.75 185 4.0829610824585 15.64999961853 2206.5425634384 29170.125704635
43195	693963 6228 5069 11629 71.5 117.75 186 184.17810058594 487.0537109375 74735.136657715 31824246.932903
43194	700191 6243 5069 11629 71.5 117.75 186 236.82244873047 486.85000610352 82210.707977295 37351846.756268
43233	706434 5446 5446 11851 76.25 119.25 173 0.973 11.54047740176 513.26973864981 2779.0391119284
43232	711880 5439 5446 11851 76.25 119.25 173 -6.0383834838867 2.5 37.492597579956 270.83877103466
43231	717319 5624 5419 11851 76 119.25 174 5.6500000953674 15.5 2230.9916615486 29971.447933481
43230	722943 5856 5392 11851 75.75 119.25 175 179.81719970703 732.0602722168 77665.500167847 38743222.245559
43229	728799 5901 5392 11851 75.75 119.25 175 486.85000610352 486.85000610352 85198.751068115 41479012.477524
vector 43390  IntersectionExampleScenario.node[48].veinsmobility  posx  ETV
vector 43391  IntersectionExampleScenario.node[48].veinsmobility  posy  ETV
vector 43392  IntersectionExampleScenario.node[48].veinsmobility  speed  ETV
vector 43393  IntersectionExampleScenario.node[48].veinsmobility  acceleration  ETV
vector 43394  IntersectionExampleScenario.node[48].veinsmobility  co2emission  ETV
43240	735101 5621 5614 12169 77.75 121.5 176 0.973 11.450879080643 535.01331393646 2847.0043860025
43239	740722 5380 5614 12169 77.75 121.5 176 -4.5 2.5 38.341367721558 282.75367486318
43238	746102 5695 5583 12169 77.5 121.5 177 5.6500000953674 15.375 2296.4540133476 31074.020570955
43237	751797 6003 5554 12169 77.25 121.5 178 161.70391845703 486.85000610352 69567.995422363 29343057.815686
43236	757800 5994 5554 12169 77.25 121.5 178 237.48840332031 486.85000610352 78291.242095947 35431883.200639
vector 43397  IntersectionExampleScenario.node[49].veinsmobility  posx  ETV
vector 43398  IntersectionExampleScenario.node[49].veinsmobility  posy  ETV
vector 43399  IntersectionExampleScenario.node[49].veinsmobility  speed  ETV
vector 43400  IntersectionExampleScenario.node[49].veinsmobility  acceleration  ETV
vector 43401  IntersectionExampleScenario.node[49].veinsmobility  co2emission  ETV
vector 43404  IntersectionExampleScenario.node[50].veinsmobility  posx  ETV
vector 43405  IntersectionExampleScenario.node[50].veinsmobility  posy  ETV
vector 43406  IntersectionExampleScenario.node[50].veinsmobility  speed  ETV
vector 43407  IntersectionExampleScenario.node[50].veinsmobility  acceleration  ETV
vector 43408  IntersectionExampleScenario.node[50].veinsmobility  co2emission  ETV
vector 43411  IntersectionExampleScenario.node[51].veinsmobility  posx  ETV
vector 43412  IntersectionExampleScenario.node[51].veinsmobility  posy  ETV
43254	764750 5535 6053 12539 81.5 124 171 0.973 11.90022389248 556.69097800749 3083.2994648201
43253	770285 5092 6053 12539 81.5 124 171 -6.9388580322266 4 39.869146347046 486.92859174969
43252	775377 5478 6024 12539 81.25 124 172 0 16 2219.975171566 32151.358108667
43251	780855 5871 5995 12539 81 124 173 483.14999389648 483.14999389648 83584.948944092 40384067.572176
43250	786726 5845 5995 12539 81 124 173 184.17810058594 735.07762145996 78044.428283691 39325385.27182
vector 43413  IntersectionExampleScenario.node[51].veinsmobility  speed  ETV
vector 43414  IntersectionExampleScenario.node[51].veinsmobility  acceleration  ETV
vector 43415  IntersectionExampleScenario.node[51].veinsmobility  co2emission  ETV
43219	792818 6128 5419 12620 76 124.5 195 0.973 11.450879080643 557.33764826173 2817.1737426787
43218	798946 5616 5419 12620 76 124.5 195 -8.4870567321777 4 37.15309715271 481.82449572734
43217	804562 6011 5392 12620 75.75 124.5 196 0 15.375 2210.4979660511 30840.215052249
43216	810573 6669 5369 12620 75.5 124.5 197 486.85000610352 486.85000610352 95909.451202393 46693516.90327
43215	817242 6653 5369 12620 75.5 124.5 197 236.75714111328 785.82187652588 101810.91646576 56833004.242141
43247	823895 6198 5645 12776 78 125.5 191 0.973 11.450879080643 564.48832178728 2839.4416660512
43246	830093 5610 5645 12776 78 125.5 191 -4.5 2.5000004768372 38.341367721558 436.1339132877
43245	835703 6294 5614 12776 77.75 125.5 192 0 15.375 2274.0825337097 31709.166845282
43244	841997 6529 5583 12776 77.5 125.5 193 238.25122070312 486.85000610352 85647.586486816 39026696.677624
43243	848526 6533 5583 12776 77.5 125.5 193 483.13467407227 803.92188262939 109735.28725433 64577791.98208
43261	855059 5464 6322 12893 83.75 126.25 171 0.973 11.648172402475 550.92712713987 2955.9028335338
43260	860523 5271 6322 12893 83.75 126.25 171 -3.4014320373535 2.5 41.227170944214 300.09946137307
43259	865794 5674 6289 12893 83.5 126.25 172 4.1516003608704 16.007007598877 2221.1184725761 31279.919501652
43258	871468 5892 6256 12893 83.25 126.25 173 486.85000610352 486.85000610352 84225.051055908 41004966.620638
43257	877360 5873 6256 12893 83.25 126.25 173 235.88513183594 785.82187652588 90591.31325531 51477954.129941
vector 43418  IntersectionExampleScenario.node[52].veinsmobility  posx  ETV
vector 43419  IntersectionExampleScenario.node[52].veinsmobility  posy  ETV
vector 43420  IntersectionExampleScenario.node[52].veinsmobility  speed  ETV
vector 43421  IntersectionExampleScenario.node[52].veinsmobility  acceleration  ETV
vector 43422  IntersectionExampleScenario.node[52].veinsmobility  co2emission  ETV
43282	883634 5796 6563 13468 85.5 130 179 0.973 11.810082123732 571.28935459699 3247.3122578789
43281	889430 5676 6563 13468 85.5 130 179 -4.5 2.5 38.511121749878 415.7445615908
43280	895106 5803 6526 13468 85.25 130 180 5.6500000953674 15.875 2265.7755651474 30637.624672889
43279	900909 6174 6489 13468 85 130 181 486.85000610352 734.65821838379 96376.988937378 52301420.952765
43278	907083 6166 6489 13468 85 130 181 486.85000610352 805.05782318115 104496.76025391 62387812.926156
43289	913249 5286 7381 13542 91 130.5 159 0.97223939240464 11.648172402475 512.72890133893 2848.9691331188
43288	918535 4844 7381 13542 91 130.5 159 -3.3991184234619 2.5 38.680875778198 284.52259132532
43287	923379 5166 7342 13542 90.75 130.5 160 5.6500000953674 15.64999961853 2178.5554289818 31058.8469334
43286	928545 5518 7303 13542 90.5 130.5 161 238.43267822266 483.14999389648 69734.98248291 31109885.618506
43285	934063 5506 7303 13542 90.5 130.5 161 184.17810058594 483.29437255859 64005.335754395 27184255.573723
vector 43425  IntersectionExampleScenario.node[53].veinsmobility  posx  ETV
vector 43426  IntersectionExampleScenario.node[53].veinsmobility  posy  ETV
vector 43427  IntersectionExampleScenario.node[53].veinsmobility  speed  ETV
vector 43428  IntersectionExampleScenario.node[53].veinsmobility  acceleration  ETV
vector 43429  IntersectionExampleScenario.node[53].veinsmobility  co2emission  ETV
43303	939970 4990 7913 13909 94.5 133 155 0.973 11.96079500792 519.83533403674 3165.4835840793
43302	944960 4944 7913 13909 94.5 133 155 -3.4280471801758 2.5000038146973 39.869146347046 275.9532147132
43301	949904 5101 7874 13909 94.25 133 156 5.6500000953674 16.083866119385 2207.8523664474 32255.087692093
43300	955005 5412 7835 13909 94 133 157 236.97277832031 486.85000610352 68226.489929199 30584749.013519
43299	960417 5413 7835 13909 94 133 157 483.14346313477 785.82187652588 89866.552131653 53197084.518072
43310	965830 5408 8113 14264 95.75 135.5 160 0.97223939240464 11.680676724413 519.8697016946 2948.1577122071
43309	971238 4886 8113 14264 95.75 135.5 160 -4.5 2.5 38.680875778198 258.0501816287
43308	976124 5342 8072 14264 95.5 135.5 161 5.6500000953674 15.695219039917 2307.7194185257 33737.0932561
43307	981466 5603 8030 14264 95.25 135.5 162 486.85000610352 486.85000610352 78869.70098877 38397714.407765
43306	987069 5586 8030 14264 95.25 135.5 162 235.61273193359 807.09531402588 86089.498031616 50380760.270254
43317	992655 5447 8113 14366 95.75 136.25 163 0.973 11.36141391502 495.0541194761 2624.4258954787
43316	998102 5356 8113 14366 95.75 136.25 163 -3.7162914276123 2.5 36.304327011108 276.27732874047
43315	1003458 5341 8072 14366 95.5 136.25 164 5.6500000953674 15.25 2178.1380476952 30116.794415293
43314	1008799 5699 8030 14366 95.25 136.25 165 238.25854492188 483.14999389648 71361.028045654 31800820.889452
43313	1014498 5685 8030 14366 95.25 136.25 165 184.17810058594 483.24795532227 65599.346008301 27851235.230348
vector 43432  IntersectionExampleScenario.node[54].veinsmobility  posx  ETV
vector 43433  IntersectionExampleScenario.node[54].veinsmobility  posy  ETV
vector 43439  IntersectionExampleScenario.node[55].veinsmobility  posx  ETV
vector 43440  IntersectionExampleScenario.node[55].veinsmobility  posy  ETV
vector 43434  IntersectionExampleScenario.node[54].veinsmobility  speed  ETV
43205	1020569 8113 5158 14962 72.75 140.75 273 0.973 11.200708441096 625.8166120499 2765.2485519431
43204	1028682 7271 5158 14962 72.75 140.75 273 -7.8636050224304 4 35.795072555542 461.06548302691
43203	1035953 7717 5139 14962 72.5 140.75 274 0 15.02499961853 2254.8027654886 30883.238133653
43202	1043670 9367 5120 14962 72.25 140.75 275 238.29931640625 798.59687805176 141864.84752655 77767652.776223
43201	1053037 9375 5120 14962 72.25 140.75 275 483.14999389648 483.14999389648 132866.24832153 64194327.065597
vector 43435  IntersectionExampleScenario.node[54].veinsmobility  acceleration  ETV
vector 43436  IntersectionExampleScenario.node[54].veinsmobility  co2emission  ETV
vector 43441  IntersectionExampleScenario.node[55].veinsmobility  speed  ETV
vector 43442  IntersectionExampleScenario.node[55].veinsmobility  acceleration  ETV
vector 43443  IntersectionExampleScenario.node[55].veinsmobility  co2emission  ETV
43212	1062828 8580 5392 15332 75.75 143.25 271 0.973 11.200708441096 626.58332467814 2697.1961252336
43211	1071408 8515 5392 15332 75.75 143.25 271 -4.5 2.5 35.625318527222 401.28399838904
43210	1079923 8725 5369 15332 75.5 143.25 272 0 15.02499961853 2286.0182713149 30842.602431653
43209	1088648 9314 5348 15332 75.25 143.25 273 237.75366210938 804.98439025879 142129.08415985 78739287.111752
43208	1097962 9328 5348 15332 75.25 143.25 273 483.14999389648 483.14999389648 131899.94833374 63727459.232393
43226	1107290 8967 5446 15665 76.25 145.5 278 0.973 10.65035628006 658.62183483014 2775.5935781428
43225	1116257 9063 5446 15665 76.25 145.5 278 -4.5 2.5 36.813589096069 409.56301275695
43224	1125320 9352 5419 15665 76 145.5 279 0 15.031892776489 2352.4425492836 30944.34413351
43223	1134672 9552 5392 15665 75.75 145.5 280 235.39306640625 819.14688873291 148890.15823364 84503461.911787
43222	1144224 9576 5392 15665 75.75 145.5 280 483.14999389648 483.14999389648 135281.99829102 65361496.648608
vector 43446  IntersectionExampleScenario.node[56].veinsmobility  posx  ETV
vector 43447  IntersectionExampleScenario.node[56].veinsmobility  posy  ETV
vector 43448  IntersectionExampleScenario.node[56].veinsmobility  speed  ETV
vector 43449  IntersectionExampleScenario.node[56].veinsmobility  acceleration  ETV
vector 43450  IntersectionExampleScenario.node[56].veinsmobility  co2emission  ETV
43268	1154201 8130 6322 15936 83.75 147.25 255 0.973 11.810082123732 649.85119502788 3185.4094213667
43267	1162331 8380 6322 15936 83.75 147.25 255 -4.5 2.5 40.378400802612 440.87040988797
43266	1170711 8485 6289 15936 83.5 147.25 256 0 15.875 2179.1524925083 29031.056338006
43265	1179196 8822 6256 15936 83.25 147.25 257 486.85000610352 785.82187652588 142523.18839264 80915818.907764
43264	1188018 8810 6256 15936 83.25 147.25 257 238.20202636719 483.14999389648 116318.74102783 53683143.765627
43275	1196828 8263 6526 16326 85.25 149.75 259 0.973 11.648172402475 646.73081803134 3147.0646926296
43274	1205091 8393 6526 16326 85.25 149.75 259 -4.3842315673828 2.5 38.341367721558 418.71347031656
43273	1213484 8509 6489 16326 85 149.75 260 0 15.64999961853 2287.3586399425 30290.751343843
43272	1221993 8964 6454 16326 84.75 149.75 261 483.14999389648 806.11563110352 146528.95368195 84526653.87973
43271	1230957 8978 6454 16326 84.75 149.75 261 483.14999389648 732.11331176758 134442.50570679 70368674.384355
43296	1239935 7557 7760 16777 93.5 152.75 238 0.973 11.36141391502 608.71008211121 3045.1944798492
43295	1247492 7788 7760 16777 93.5 152.75 238 -4.0553894042969 2.5 37.15309715271 430.88412225777
43294	1255280 7918 7721 16777 93.25 152.75 239 0 15.25 2187.3105602488 27691.595795739
43293	1263198 8293 7682 16777 93 152.75 240 486.85000610352 785.82187652588 134852.26493073 77619118.575505
43292	1271491 8296 7682 16777 93 152.75 240 236.2509765625 483.14999389648 107576.02090454 49302178.58113
vector 43453  IntersectionExampleScenario.node[57].veinsmobility  posx  ETV
vector 43454  IntersectionExampleScenario.node[57].veinsmobility  posy  ETV
vector 43455  IntersectionExampleScenario.node[57].veinsmobility  speed  ETV
vector 43456  IntersectionExampleScenario.node[57].veinsmobility  acceleration  ETV
vector 43457  IntersectionExampleScenario.node[57].veinsmobility  co2emission  ETV
vector 43460  IntersectionExampleScenario.node[58].veinsmobility  posx  ETV
vector 43461  IntersectionExampleScenario.node[58].veinsmobility  posy  ETV
vector 43462  IntersectionExampleScenario.node[58].veinsmobility  speed  ETV
vector 43463  IntersectionExampleScenario.node[58].veinsmobility  acceleration  ETV
vector 43464  IntersectionExampleScenario.node[58].veinsmobility  co2emission  ETV
vector 43467  IntersectionExampleScenario.node[59].veinsmobility  posx  ETV
vector 43468  IntersectionExampleScenario.node[59].veinsmobility  posy  ETV
vector 43469  IntersectionExampleScenario.node[59].veinsmobility  speed  ETV
vector 43470  IntersectionExampleScenario.node[59].veinsmobility  acceleration  ETV
vector 43471  IntersectionExampleScenario.node[59].veinsmobility  co2emission  ETV
vector 43474  IntersectionExampleScenario.node[60].veinsmobility  posx  ETV
vector 43475  IntersectionExampleScenario.node[60].veinsmobility  posy  ETV
43422	1281144 5383 13124 18299 127.75 167 158 0.973 11.648172402475 488.72283402543 2622.7120140539
43421	1286527 5056 13124 18299 127.75 167 158 -3.3094635009766 2.5 37.832105636597 236.88727917153
43420	1291583 5277 13085 18299 127.5 167 159 5.6500000953674 15.64999961853 2209.7025213242 31593.053167958
43419	1296860 5577 13046 18299 127.25 167 160 184.17810058594 486.88037109375 63712.712585449 27151931.257659
43418	1302437 5589 13046 18299 127.25 167 160 236.20922851562 486.85000610352 69381.200195312 31055205.624075
vector 43476  IntersectionExampleScenario.node[60].veinsmobility  speed  ETV
vector 43477  IntersectionExampleScenario.node[60].veinsmobility  acceleration  ETV
vector 43478  IntersectionExampleScenario.node[60].veinsmobility  co2emission  ETV
43324	1308273 8096 9050 18437 101.75 168.5 268 0.973 11.90022389248 664.5633778834 3180.7082484709
43323	1316369 7268 9050 18437 101.75 168.5 268 -30.581882476807 4 41.227170944214 1326.7091023189
43322	1323637 7512 9012 18437 101.5 168.5 269 0 16.136959075928 2189.4470157623 32486.896608016
43321	1331149 9422 8973 18437 101.25 168.5 270 483.14999389648 735.22354125977 138627.4196167 72300815.802625
43320	1340571 9406 8973 18437 101.25 168.5 270 184.17810058594 486.85000610352 115849.47674561 51816945.426258
43331	1349977 8996 9165 18706 102.5 171.75 278 0.973 10.916047529558 624.30410564645 2577.3906930926
43330	1358973 9023 9165 18706 102.5 171.75 278 -4.4423065185547 2.5 34.437047958374 373.34760500164
43329	1367996 9052 9126 18706 102.25 171.75 279 0 14.654576301575 2281.0250934148 29688.718642684
43328	1377048 9758 9087 18706 102 171.75 280 235.35003662109 483.14999389648 126467.88497925 58299235.779376
43327	1386806 9740 9087 18706 102 171.75 280 161.1796875 483.14999389648 116493.48422241 51048164.811709
43338	1396546 8272 9324 18725 103.5 172 275 0.973 11.810082123732 645.15602286082 3099.2373523647
43337	1404818 7671 9324 18725 103.5 172 275 -7.7750473022461 4 38.511121749878 500.60848155561
43336	1412489 7809 9284 18725 103.25 172 276 0 15.875 2179.2315201759 30724.876195575
43335	1420298 9663 9243 18725 103 172 277 486.85000610352 732.9859161377 143000.41319275 74917125.896674
43334	1429961 9660 9243 18725 103 172 277 486.75677490234 785.82187652588 150033.60028839 83371117.654245
43345	1439621 9057 9406 18801 104 173 277 0.973 10.916047529558 690.14427431902 3060.3051744616
43344	1448678 9447 9406 18801 104 173 277 -4.5 2.5 40.954702377319 480.85804004795
43343	1458125 9373 9365 18801 103.75 173 278 0 16.066749572754 2313.4649599567 30971.183181754
43342	1467498 9723 9324 18801 103.5 173 279 236.10961914062 483.14999389648 126732.00601196 58651735.020255
43341	1477221 9721 9324 18801 103.5 173 279 152.38513183594 483.19076538086 114828.91375732 49843608.643293
43352	1486942 8685 9657 18801 105.5 173 271 0.973 11.648172402475 648.7042846514 3027.502613852
43351	1495627 8460 9657 18801 105.5 173 271 -4.5 2.5 38.341367721558 444.54895725101
43350	1504087 8600 9613 18801 105.25 173 272 0 15.64999961853 2284.7415557997 32075.373068061
43349	1512687 9543 9570 18801 105 173 273 486.85000610352 486.85000610352 132910.05166626 64707259.464937
43348	1522230 9510 9570 18801 105 173 273 237.54693603516 803.92188262939 142057.74854279 78493660.826265
43366	1531740 8776 10134 18927 108.25 174.75 267 0.973 11.54047740176 642.05779576584 2922.1930622168
43365	1540516 8801 10134 18927 108.25 174.75 267 -4.5 2.5000019073486 37.492597579956 401.46882288901
43364	1549317 9172 10089 18927 108 174.75 268 0 15.5 2306.2818421498 30440.954611503
43363	1558489 9416 10044 18927 107.75 174.75 269 483.14999389648 483.14999389648 129967.34835815 62793723.565984
43362	1567905 9375 10044 18927 107.75 174.75 269 163.80346679688 735.44590759277 118881.81933594 57260136.35777
vector 43481  IntersectionExampleScenario.node[61].veinsmobility  posx  ETV
vector 43482  IntersectionExampleScenario.node[61].veinsmobility  posy  ETV
vector 43483  IntersectionExampleScenario.node[61].veinsmobility  speed  ETV
vector 43484  IntersectionExampleScenario.node[61].veinsmobility  acceleration  ETV
vector 43485  IntersectionExampleScenario.node[61].veinsmobility  co2emission  ETV
43373	1577681 8414 10539 19001 110.75 175.75 261 0.973 11.810082123732 641.51670625657 3136.0925149624
43372	1586095 8760 10539 19001 110.75 175.75 261 -3.8974642753601 2.5000004768372 39.869146347046 375.96762401101
43371	1594855 8770 10498 19001 110.5 175.75 262 0 15.875 2214.8829180375 29688.352898157
43370	1603625 9200 10457 19001 110.25 175.75 263 486.85000610352 735.17112731934 136172.59997559 71594597.230337
43369	1612825 9191 10457 19001 110.25 175.75 263 486.85000610352 791.49750518799 145278.40519714 82283372.780845
vector 43488  IntersectionExampleScenario.node[62].veinsmobility  posx  ETV
vector 43489  IntersectionExampleScenario.node[62].veinsmobility  posy  ETV
vector 43490  IntersectionExampleScenario.node[62].veinsmobility  speed  ETV
vector 43491  IntersectionExampleScenario.node[62].veinsmobility  acceleration  ETV
vector 43492  IntersectionExampleScenario.node[62].veinsmobility  co2emission  ETV
43380	1622417 8530 10856 19116 112.75 177.25 259 0.973 11.648172402475 634.41944413738 3005.2582789238
43379	1630947 8661 10856 19116 112.75 177.25 259 -4.5 2.5 38.511121749878 410.64512831864
43378	1639608 8866 10815 19116 112.5 177.25 260 0 15.64999961853 2298.6602055002 30826.902400452
43377	1648474 9136 10774 19116 112.25 177.25 261 486.85000610352 486.85000610352 127067.85159302 61862984.323621
43376	1657610 9105 10774 19116 112.25 177.25 261 237.19921875 806.75969696045 138102.56432343 77688636.563833
43387	1666715 8098 11283 19192 115.5 178.25 252 0.973 11.200708441096 598.67305863405 2763.0095871088
43386	1674813 8715 11283 19192 115.5 178.25 252 -3.7521412372589 2.5 36.98334312439 346.83082979644
43385	1683528 8776 11244 19192 115.25 178.25 253 0 15.072128295898 2214.1761923786 28370.708930986
43384	1692304 8877 11205 19192 115 178.25 254 483.14999389648 734.48358154297 131421.96559143 69155546.409611
43383	1701181 8847 11205 19192 115 178.25 254 184.17810058594 486.86218261719 104989.51074219 45319662.619034
43415	1710028 6937 12620 19192 124.5 178.25 216 0.973 12.099024792222 599.16626186381 3204.6449439651
43414	1716965 7060 12620 19192 124.5 178.25 216 -3.9358444213867 2.5 41.227170944214 374.71592265921
43413	1724025 7322 12580 19192 124.25 178.25 217 0 16.27499961853 2216.3004824705 30196.96228655
43412	1731347 7629 12539 19192 124 178.25 218 483.14999389648 483.14999389648 105326.69866943 50888593.819274
43411	1738976 7553 12539 19192 124 178.25 218 184.17810058594 732.3762512207 96366.895095825 46624032.695826
43408	1746529 7159 12500 19299 123.75 179.75 225 0.973 11.200708441096 566.53719178502 2721.7559212572
43407	1753688 7531 12500 19299 123.75 179.75 225 -3.8613743782043 2.5 37.15309715271 305.83558951365
43406	1761219 7673 12461 19299 123.5 179.75 226 0 15.386222839355 2212.5598293096 28654.683033205
43405	1768892 7947 12422 19299 123.25 179.75 227 486.85000610352 486.85000610352 110514.9513855 53804204.756559
43404	1776839 7896 12422 19299 123.25 179.75 227 238.00634765625 785.82187652588 119314.83495331 66915592.806872
vector 43495  IntersectionExampleScenario.node[63].veinsmobility  posx  ETV
vector 43496  IntersectionExampleScenario.node[63].veinsmobility  posy  ETV
vector 43497  IntersectionExampleScenario.node[63].veinsmobility  speed  ETV
vector 43502  IntersectionExampleScenario.node[64].veinsmobility  posx  ETV
vector 43503  IntersectionExampleScenario.node[64].veinsmobility  posy  ETV
vector 43498  IntersectionExampleScenario.node[63].veinsmobility  acceleration  ETV
vector 43499  IntersectionExampleScenario.node[63].veinsmobility  co2emission  ETV
vector 43504  IntersectionExampleScenario.node[64].veinsmobility  speed  ETV
vector 43505  IntersectionExampleScenario.node[64].veinsmobility  acceleration  ETV
vector 43506  IntersectionExampleScenario.node[64].veinsmobility  co2emission  ETV
43359	1785537 9420 9700 19637 105.75 185 318 0.973 11.648172402475 729.28461786041 3369.6303071442
43358	1794957 8692 9700 19637 105.75 185 318 -26.66650390625 4 39.529638290405 1202.3448923801
43357	1803649 9165 9657 19637 105.5 185 319 0 15.64999961853 2175.5365157127 28086.470512246
43356	1812814 11178 9613 19637 105.25 185 320 486.63604736328 785.82187652588 173432.51766205 96128771.932245
43355	1823992 11122 9613 19637 105.25 185 320 237.08819580078 483.14999389648 146579.74514771 68252681.108615
vector 43509  IntersectionExampleScenario.node[65].veinsmobility  posx  ETV
vector 43510  IntersectionExampleScenario.node[65].veinsmobility  posy  ETV
vector 43516  IntersectionExampleScenario.node[66].veinsmobility  posx  ETV
vector 43517  IntersectionExampleScenario.node[66].veinsmobility  posy  ETV
vector 43511  IntersectionExampleScenario.node[65].veinsmobility  speed  ETV
vector 43512  IntersectionExampleScenario.node[65].veinsmobility  acceleration  ETV
vector 43513  IntersectionExampleScenario.node[65].veinsmobility  co2emission  ETV
vector 43518  IntersectionExampleScenario.node[66].veinsmobility  speed  ETV
vector 43519  IntersectionExampleScenario.node[66].veinsmobility  acceleration  ETV
vector 43520  IntersectionExampleScenario.node[66].veinsmobility  co2emission  ETV
43394	1835916 8776 11959 19854 120 187.75 272 0.973 11.810082123732 644.57953479695 3172.8352349206
43393	1844692 9146 11959 19854 120 187.75 272 -3.998583316803 2.5 38.511121749878 382.56435537922
43392	1853838 9033 11923 19854 119.75 187.75 273 0 15.875 2189.476906349 29765.146337855
43391	1862871 9570 11887 19854 119.5 187.75 274 486.85000610352 785.82187652588 149526.14415741 83623482.908703
43390	1872441 9582 11887 19854 119.5 187.75 274 235.38818359375 483.14999389648 124129.52114868 57344990.591291
vector 43523  IntersectionExampleScenario.node[67].veinsmobility  posx  ETV
vector 43524  IntersectionExampleScenario.node[67].veinsmobility  posy  ETV
43401	1882177 8828 12348 20070 122.75 190.5 272 0.973 11.648172402475 640.9464868179 2969.6640330503
43400	1891005 9111 12348 20070 122.75 190.5 272 -4.5 2.5 38.171613693237 379.5894951351
43399	1900116 9171 12311 20070 122.5 190.5 273 0 15.64999961853 2239.8991961274 29185.056589106
43398	1909287 9572 12274 20070 122.25 190.5 274 486.83654785156 800.04531860352 151957.56643677 86486678.591961
43397	1918859 9582 12274 20070 122.25 190.5 274 236.86431884766 483.14999389648 124170.93786621 57369012.437091
vector 43525  IntersectionExampleScenario.node[67].veinsmobility  speed  ETV
vector 43526  IntersectionExampleScenario.node[67].veinsmobility  acceleration  ETV
vector 43527  IntersectionExampleScenario.node[67].veinsmobility  co2emission  ETV
43429	1928688 7919 13761 20343 132 193.75 248 0.973 11.36141391502 587.64427199857 2792.1760744482
43428	1936607 8295 13761 20343 132 193.75 248 -3.8168747425079 2.5 36.643835067749 341.27525736142
43427	1944902 8334 13724 20343 131.75 193.75 249 0 15.25 2179.256418135 27766.175287636
43426	1953236 8734 13687 20343 131.5 193.75 250 486.8444519043 785.82187652588 139055.6467514 79259311.000686
43425	1961970 8741 13687 20343 131.5 193.75 250 237.93078613281 483.14999389648 112454.85394287 51665701.475016
43436	1970711 6872 14999 20448 141 195 217 0.973 11.54047740176 563.26843570636 2810.2803012516
43435	1977583 7206 14999 20448 141 195 217 -3.8652029037476 2.5 37.15309715271 320.45453359757
43434	1984789 7384 14962 20448 140.75 195 218 0 15.5 2219.1678129621 28749.207031185
43433	1992173 7646 14927 20448 140.5 195 219 236.39117431641 785.82187652588 114998.72490692 64626316.351048
43432	1999819 7664 14927 20448 140.5 195 219 483.14999389648 483.14999389648 105809.84866333 51122027.735876
43443	2007483 7335 15036 20574 141.25 196.5 222 0.973 11.515628821269 612.61917579416 2973.5395688731
43442	2014818 7317 15036 20574 141.25 196.5 222 -4.5 2.5 39.869146347046 420.30088573665
43441	2022135 7599 14999 20574 141 196.5 223 0 15.661827087402 2321.4147912674 31058.522238023
43440	2029734 7813 14962 20574 140.75 196.5 224 235.88116455078 810.23281097412 120315.31234741 69356347.81484
43439	2037547 7840 14962 20574 140.75 196.5 224 483.14999389648 483.14999389648 108225.59863281 52289197.318887
43457	2045387 5647 16991 20679 154.25 197.75 175 0.973 12.099024792222 554.01875085521 3160.8221495485
43456	2051034 5482 16991 20679 154.25 197.75 175 -2.1765441894531 2.5 41.566686630249 287.17092118912
43455	2056516 5900 16955 20679 154 197.75 176 4.583484172821 16.27499961853 2209.9210104942 30273.616623316
43454	2062416 6182 16918 20679 153.75 197.75 177 238.92376708984 785.82187652588 93682.099067688 53583011.757115
43453	2068598 6196 16918 20679 153.75 197.75 177 483.14999389648 483.14999389648 85517.548919678 41317803.238584
vector 43530  IntersectionExampleScenario.node[68].veinsmobility  posx  ETV
vector 43531  IntersectionExampleScenario.node[68].veinsmobility  posy  ETV
vector 43532  IntersectionExampleScenario.node[68].veinsmobility  speed  ETV
vector 43533  IntersectionExampleScenario.node[68].veinsmobility  acceleration  ETV
vector 43534  IntersectionExampleScenario.node[68].veinsmobility  co2emission  ETV
vector 43537  IntersectionExampleScenario.node[69].veinsmobility  posx  ETV
vector 43538  IntersectionExampleScenario.node[69].veinsmobility  posy  ETV
vector 43539  IntersectionExampleScenario.node[69].veinsmobility  speed  ETV
vector 43540  IntersectionExampleScenario.node[69].veinsmobility  acceleration  ETV
vector 43541  IntersectionExampleScenario.node[69].veinsmobility  co2emission  ETV
vector 43544  IntersectionExampleScenario.node[70].veinsmobility  posx  ETV
vector 43545  IntersectionExampleScenario.node[70].veinsmobility  posy  ETV
vector 43546  IntersectionExampleScenario.node[70].veinsmobility  speed  ETV
vector 43551  IntersectionExampleScenario.node[71].veinsmobility  posx  ETV
vector 43552  IntersectionExampleScenario.node[71].veinsmobility  posy  ETV
vector 43558  IntersectionExampleScenario.node[72].veinsmobility  posx  ETV
vector 43559  IntersectionExampleScenario.node[72].veinsmobility  posy  ETV
vector 43547  IntersectionExampleScenario.node[70].veinsmobility  acceleration  ETV
vector 43548  IntersectionExampleScenario.node[70].veinsmobility  co2emission  ETV
vector 43553  IntersectionExampleScenario.node[71].veinsmobility  speed  ETV
vector 43560  IntersectionExampleScenario.node[72].veinsmobility  speed  ETV
vector 43554  IntersectionExampleScenario.node[71].veinsmobility  acceleration  ETV
vector 43555  IntersectionExampleScenario.node[71].veinsmobility  co2emission  ETV
vector 43561  IntersectionExampleScenario.node[72].veinsmobility  acceleration  ETV
vector 43562  IntersectionExampleScenario.node[72].veinsmobility  co2emission  ETV
43471	2076799 5682 18110 21423 164.75 206 166 0.973 10.756497587458 440.48886073936 1941.5738133925
43470	2082481 5088 18110 21423 164.75 206 166 -2.9879531860352 2.5 32.739515304565 150.76927562137
43469	2087569 5637 18089 21423 164.5 206 167 5.6500000953674 14.39999961853 2216.9575691223 29807.424580157
43468	2093206 5847 18068 21423 164.25 206 168 184.17810058594 733.73391723633 75740.970825195 38598254.255497
43467	2099053 5880 18068 21423 164.25 206 168 486.85000610352 486.85000610352 81790.801025391 39819851.978423
vector 43565  IntersectionExampleScenario.node[73].veinsmobility  posx  ETV
vector 43566  IntersectionExampleScenario.node[73].veinsmobility  posy  ETV
vector 43567  IntersectionExampleScenario.node[73].veinsmobility  speed  ETV
vector 43568  IntersectionExampleScenario.node[73].veinsmobility  acceleration  ETV
vector 43569  IntersectionExampleScenario.node[73].veinsmobility  co2emission  ETV
43450	2105334 8216 15780 22209 146.25 213.75 271 0.973 12.099024792222 665.12715566569 3319.6679323229
43449	2113550 7348 15780 22209 146.25 213.75 271 -33.003223419189 4 40.887662887573 1468.1880016782
43448	2120898 7624 15741 22209 146 213.75 272 0 16.27499961853 2204.2196435928 32671.81388833
43447	2128522 9553 15702 22209 145.75 213.75 273 236.69555664062 486.85000610352 124814.21105957 58172273.788139
43446	2138075 9548 15702 22209 145.75 213.75 273 483.14999389648 785.82187652588 147478.840065 81775894.651315
vector 43572  IntersectionExampleScenario.node[74].veinsmobility  posx  ETV
vector 43573  IntersectionExampleScenario.node[74].veinsmobility  posy  ETV
vector 43574  IntersectionExampleScenario.node[74].veinsmobility  speed  ETV
vector 43575  IntersectionExampleScenario.node[74].veinsmobility  acceleration  ETV
vector 43576  IntersectionExampleScenario.node[74].veinsmobility  co2emission  ETV
vector 43579  IntersectionExampleScenario.node[75].veinsmobility  posx  ETV
vector 43580  IntersectionExampleScenario.node[75].veinsmobility  posy  ETV
vector 43586  IntersectionExampleScenario.node[76].veinsmobility  posx  ETV
vector 43587  IntersectionExampleScenario.node[76].veinsmobility  posy  ETV
vector 43581  IntersectionExampleScenario.node[75].veinsmobility  speed  ETV
vector 43588  IntersectionExampleScenario.node[76].veinsmobility  speed  ETV
vector 43582  IntersectionExampleScenario.node[75].veinsmobility  acceleration  ETV
vector 43583  IntersectionExampleScenario.node[75].veinsmobility  co2emission  ETV
vector 43589  IntersectionExampleScenario.node[76].veinsmobility  acceleration  ETV
vector 43590  IntersectionExampleScenario.node[76].veinsmobility  co2emission  ETV
vector 43593  IntersectionExampleScenario.node[77].veinsmobility  posx  ETV
vector 43594  IntersectionExampleScenario.node[77].veinsmobility  posy  ETV
vector 43595  IntersectionExampleScenario.node[77].veinsmobility  speed  ETV
vector 43600  IntersectionExampleScenario.node[78].veinsmobility  posx  ETV
vector 43601  IntersectionExampleScenario.node[78].veinsmobility  posy  ETV
vector 43596  IntersectionExampleScenario.node[77].veinsmobility  acceleration  ETV
vector 43597  IntersectionExampleScenario.node[77].veinsmobility  co2emission  ETV
vector 43602  IntersectionExampleScenario.node[78].veinsmobility  speed  ETV
vector 43607  IntersectionExampleScenario.node[79].veinsmobility  posx  ETV
vector 43608  IntersectionExampleScenario.node[79].veinsmobility  posy  ETV
vector 43603  IntersectionExampleScenario.node[78].veinsmobility  acceleration  ETV
vector 43604  IntersectionExampleScenario.node[78].veinsmobility  co2emission  ETV
vector 43609  IntersectionExampleScenario.node[79].veinsmobility  speed  ETV
vector 43610  IntersectionExampleScenario.node[79].veinsmobility  acceleration  ETV
vector 43611  IntersectionExampleScenario.node[79].veinsmobility  co2emission  ETV
43499	2150029 5356 19518 23151 183.25 222.25 157 0.973 11.648172402475 489.93848290835 2630.9394071346
43498	2155385 4923 19518 23151 183.25 222.25 157 -3.2447242736816 2.5 38.341367721558 231.96885522496
43497	2160308 5245 19503 23151 183 222.25 158 5.6500000953674 15.64999961853 2204.4889316559 31683.15473348
43496	2165553 5546 19488 23151 182.75 222.25 159 483.14999389648 732.29183959961 85173.61227417 46573379.161166
43495	2171099 5540 19488 23151 182.75 222.25 159 184.17810058594 486.85000610352 63288.768218994 26965347.223754
vector 43614  IntersectionExampleScenario.node[80].veinsmobility  posx  ETV
vector 43615  IntersectionExampleScenario.node[80].veinsmobility  posy  ETV
vector 43616  IntersectionExampleScenario.node[80].veinsmobility  speed  ETV
43506	2176871 5355 19552 23211 183.75 222.75 157 0.973 11.648172402475 491.52726649725 2636.9338880946
43505	2182226 4885 19552 23211 183.75 222.75 157 -3.3749542236328 2.5 38.511121749878 234.68505931777
43504	2187111 5245 19535 23211 183.5 222.75 158 5.6500000953674 15.64999961853 2208.4045886993 31807.745820974
43503	2192356 5562 19518 23211 183.25 222.75 159 236.83752441406 486.85000610352 69019.078063965 30914108.780926
43502	2197918 5555 19518 23211 183.25 222.75 159 483.14999389648 785.82187652588 90917.97403717 53762069.37164
vector 43617  IntersectionExampleScenario.node[80].veinsmobility  acceleration  ETV
vector 43618  IntersectionExampleScenario.node[80].veinsmobility  co2emission  ETV
43513	2203642 5489 19728 23601 186.25 226 160 0.973 11.54047740176 474.58228032615 2368.7417018825
43512	2209131 5042 19728 23601 186.25 226 160 -3.7572212219238 2.5 37.32285118103 190.53638669887
43511	2214173 5397 19707 23601 186 226 161 5.6500000953674 15.5 2279.3310871124 32852.114631906
43510	2219570 5669 19688 23601 185.75 226 162 486.85000610352 486.85000610352 78869.70098877 38397714.407765
43509	2225239 5651 19688 23601 185.75 226 162 236.70562744141 801.41563415527 85672.463020325 49856070.593645
vector 43621  IntersectionExampleScenario.node[81].veinsmobility  posx  ETV
vector 43622  IntersectionExampleScenario.node[81].veinsmobility  posy  ETV
vector 43623  IntersectionExampleScenario.node[81].veinsmobility  speed  ETV
vector 43628  IntersectionExampleScenario.node[82].veinsmobility  posx  ETV
vector 43629  IntersectionExampleScenario.node[82].veinsmobility  posy  ETV
vector 43624  IntersectionExampleScenario.node[81].veinsmobility  acceleration  ETV
vector 43625  IntersectionExampleScenario.node[81].veinsmobility  co2emission  ETV
vector 43630  IntersectionExampleScenario.node[82].veinsmobility  speed  ETV
43464	2231523 7812 18049 24008 164 229.5 263 0.973 12.212831333521 674.48589627246 3809.2873082952
43463	2239335 7077 18049 24008 164 229.5 263 -6.8403635025024 4 41.396924972534 520.199469061
43462	2246412 7564 18030 24008 163.75 229.5 264 0 16.432025909424 2207.9082837105 32324.686341894
43461	2253976 9258 18010 24008 163.5 229.5 265 238.08117675781 785.82187652588 135971.2412796 73793835.77542
43460	2263234 9275 18010 24008 163.5 229.5 265 483.14999389648 483.14999389648 128034.74838257 61859987.899576
vector 43631  IntersectionExampleScenario.node[82].veinsmobility  acceleration  ETV
vector 43632  IntersectionExampleScenario.node[82].veinsmobility  co2emission  ETV
43478	2272678 8431 18345 24317 167.5 232 259 0.973 11.36141391502 613.68154298327 2810.1505051535
43477	2281109 8572 18345 24317 167.5 232 259 -4.1053352355957 2.5 36.813589096069 373.99077896409
43476	2289681 8531 18322 24317 167.25 232 260 0 15.25 2217.8288804479 29744.993782727
43475	2298212 9110 18299 24317 167 232 261 486.85000610352 795.46562957764 143873.8800354 81513939.397267
43474	2307322 9118 18299 24317 167 232 261 237.89416503906 483.14999389648 117793.56332397 54253514.919247
vector 43635  IntersectionExampleScenario.node[83].veinsmobility  posx  ETV
vector 43636  IntersectionExampleScenario.node[83].veinsmobility  posy  ETV
vector 43637  IntersectionExampleScenario.node[83].veinsmobility  speed  ETV
43520	2316672 6076 19749 24464 186.5 233.25 188 0.973 11.54047740176 537.23410697717 2768.6020565565
43519	2322748 6183 19749 24464 186.5 233.25 188 -2.110424041748 2.5 37.15309715271 297.7878372585
43518	2328931 6428 19728 24464 186.25 233.25 189 2.6217937469482 15.5 2212.8889217377 29213.422477697
43517	2335359 6637 19707 24464 186 233.25 190 237.75622558594 785.82187652588 99375.78212738 56167758.32769
43516	2341996 6649 19707 24464 186 233.25 190 483.14999389648 483.14999389648 91798.498840332 44352444.154413
vector 43638  IntersectionExampleScenario.node[83].veinsmobility  acceleration  ETV
vector 43639  IntersectionExampleScenario.node[83].veinsmobility  co2emission  ETV
vector 43642  IntersectionExampleScenario.node[84].veinsmobility  posx  ETV
vector 43643  IntersectionExampleScenario.node[84].veinsmobility  posy  ETV
vector 43644  IntersectionExampleScenario.node[84].veinsmobility  speed  ETV
vector 43645  IntersectionExampleScenario.node[84].veinsmobility  acceleration  ETV
vector 43646  IntersectionExampleScenario.node[84].veinsmobility  co2emission  ETV
43527	2349215 5913 20112 24802 191 236 181 0.973 11.36141391502 580.68181021331 3141.5283541078
43526	2355128 5834 20112 24802 191 236 181 -4.5 2.5 40.038900375366 408.01206034606
43525	2360962 6060 20091 24802 190.75 236 182 3.9796695709229 15.676964759827 2188.6996006966 29412.20008798
43524	2367022 6399 20070 24802 190.5 236 183 486.85000610352 785.82187652588 104277.56102753 61164776.477002
43523	2373421 6390 20070 24802 190.5 236 183 235.67797851562 483.14999389648 80359.865203857 36256934.685409
vector 43649  IntersectionExampleScenario.node[85].veinsmobility  posx  ETV
vector 43650  IntersectionExampleScenario.node[85].veinsmobility  posy  ETV
vector 43651  IntersectionExampleScenario.node[85].veinsmobility  speed  ETV
vector 43652  IntersectionExampleScenario.node[85].veinsmobility  acceleration  ETV
vector 43653  IntersectionExampleScenario.node[85].veinsmobility  co2emission  ETV
43541	2380212 5212 20970 25331 201.25 240.75 159 0.97270639464749 11.810082123732 527.20573969857 3257.1005202795
43540	2385424 5228 20970 25331 201.25 240.75 159 -3.332160949707 2.5 38.511121749878 308.92441723557
43539	2390652 5259 20947 25331 201 240.75 160 5.6500000953674 15.875 2176.5776748657 30982.608096447
43538	2395911 5626 20924 25331 200.75 240.75 161 486.85000610352 785.82187652588 92199.207008362 54537533.118485
43537	2401537 5625 20924 25331 200.75 240.75 161 238.57092285156 483.14999389648 69736.530517578 31111889.530554
vector 43656  IntersectionExampleScenario.node[86].veinsmobility  posx  ETV
vector 43657  IntersectionExampleScenario.node[86].veinsmobility  posy  ETV
vector 43658  IntersectionExampleScenario.node[86].veinsmobility  speed  ETV
vector 43659  IntersectionExampleScenario.node[86].veinsmobility  acceleration  ETV
vector 43660  IntersectionExampleScenario.node[86].veinsmobility  co2emission  ETV
43485	2407563 8534 18982 25834 175.5 245.5 281 0.973 11.36141391502 643.39383572871 2873.278698038
43484	2416097 7382 18982 25834 175.5 245.5 281 -8.1096153259277 4 37.492597579956 525.93347156577
43483	2423479 7952 18963 25834 175.25 245.5 282 0 15.25 2181.4825720787 30483.595153776
43482	2431431 9883 18944 25834 175 245.5 283 184.17810058594 483.36395263672 121379.04144287 54194941.777227
43481	2441314 9839 18944 25834 175 245.5 283 486.85000610352 734.21499633789 146142.8631897 76597550.197206
43492	2451153 9198 19116 26095 177.25 248.75 287 0.973 11.36141391502 650.72377729396 2857.5316084548
43491	2460351 8999 19116 26095 177.25 248.75 287 -4.5 2.5 36.643835067749 424.43444171856
43490	2469350 9148 19097 26095 177 248.75 288 0 15.25 2258.5893320637 30610.051252205
43489	2478498 10086 19077 26095 176.75 248.75 289 164.94219970703 483.1813659668 121593.8253479 53619553.77468
43488	2488584 10108 19077 26095 176.75 248.75 289 486.85000610352 732.70533752441 149078.4213562 78027712.87986
43534	2498692 6382 20840 26163 199.75 249.75 201 0.973 11.990504229548 569.74024689484 3046.4092590013
43533	2505074 6700 20840 26163 199.75 249.75 201 -2.1092338562012 2.5000019073486 39.699392318726 325.0013406235
43532	2511774 6864 20819 26163 199.5 249.75 202 1.121585726738 16.125 2223.6986174583 30065.117356238
43531	2518638 7067 20798 26163 199.25 249.75 203 184.17810058594 734.90170288086 90919.895187378 44851327.579094
43530	2525705 7107 20798 26163 199.25 249.75 203 486.85000610352 486.85000610352 98830.551239014 48115654.473927
vector 43663  IntersectionExampleScenario.node[87].veinsmobility  posx  ETV
vector 43664  IntersectionExampleScenario.node[87].veinsmobility  posy  ETV
vector 43665  IntersectionExampleScenario.node[87].veinsmobility  speed  ETV
vector 43666  IntersectionExampleScenario.node[87].veinsmobility  acceleration  ETV
vector 43667  IntersectionExampleScenario.node[87].veinsmobility  co2emission  ETV
43562	2533213 5915 21423 26294 206 251.5 183 0.973 11.648172402475 540.42495849537 2925.4167534228
43561	2539128 6076 21423 26294 206 251.5 183 -2.8430824279785 2.5 39.869146347046 284.14706380239
43560	2545204 6222 21394 26294 205.75 251.5 184 4.4926915168762 16.039003372192 2211.8903450966 29587.005868915
43559	2551426 6446 21365 26294 205.5 251.5 185 184.17810058594 731.92164611816 81969.755767822 40397826.19869
43558	2557872 6475 21365 26294 205.5 251.5 185 486.85000610352 486.85000610352 90067.25112915 43849241.761954
vector 43670  IntersectionExampleScenario.node[88].veinsmobility  posx  ETV
vector 43671  IntersectionExampleScenario.node[88].veinsmobility  posy  ETV
vector 43672  IntersectionExampleScenario.node[88].veinsmobility  speed  ETV
vector 43673  IntersectionExampleScenario.node[88].veinsmobility  acceleration  ETV
vector 43674  IntersectionExampleScenario.node[88].veinsmobility  co2emission  ETV
vector 43677  IntersectionExampleScenario.node[89].veinsmobility  posx  ETV
vector 43678  IntersectionExampleScenario.node[89].veinsmobility  posy  ETV
vector 43679  IntersectionExampleScenario.node[89].veinsmobility  speed  ETV
vector 43680  IntersectionExampleScenario.node[89].veinsmobility  acceleration  ETV
vector 43681  IntersectionExampleScenario.node[89].veinsmobility  co2emission  ETV
43569	2565149 5842 21808 26472 209.75 253.75 177 0.973 11.90022389248 548.65154141339 3073.7243205507
43568	2570991 5752 21808 26472 209.75 253.75 177 -4.7152290344238 2.5 40.038900375366 334.58705425624
43567	2576743 5938 21781 26472 209.5 253.75 178 5.6500000953674 16 2239.4568486214 30421.522285295
43566	2582681 6242 21754 26472 209.25 253.75 179 176.21716308594 487.01293945312 71158.051757812 30180461.821846
43565	2588923 6262 21754 26472 209.25 253.75 179 236.3681640625 486.85000610352 78927.97946167 35796127.454953
43576	2595185 5305 22310 26640 214.75 255.75 165 0.973 11.54047740176 487.29117907801 2726.3091258371
43575	2600490 5387 22310 26640 214.75 255.75 165 -3.7658996582031 2.5 37.15309715271 219.47617068168
43574	2605877 5567 22285 26640 214.5 255.75 166 5.6500000953674 15.5 2215.4108362198 30263.263999087
43573	2611444 5804 22259 26640 214.25 255.75 167 184.17810058594 732.96676635742 74565.156021118 37516441.21218
43572	2617248 5847 22259 26640 214.25 255.75 167 486.85000610352 486.85000610352 81303.951019287 39582829.04998
43548	2623095 6783 21365 26892 205.5 258.75 214 0.973 11.648172402475 595.40786845706 3000.0195582258
43547	2629878 6113 21365 26892 205.5 258.75 214 -6.9388580322266 4 39.869146347046 477.16200207355
43546	2635991 6537 21340 26892 205.25 258.75 215 0 15.655550956726 2189.5668721199 31531.146155477
43545	2642528 7553 21315 26892 205 258.75 216 483.14999389648 734.72067260742 112672.26641846 59846411.5594
43544	2650081 7537 21315 26892 205 258.75 216 184.17810058594 486.85000610352 90263.706481934 39704641.427176
43555	2657618 6756 21423 26913 206 259 213 0.973 11.90022389248 596.25299561788 3099.1233660688
43554	2664374 6147 21423 26913 206 259 213 -6.9388580322266 4 39.869146347046 483.42859174969
43553	2670521 6510 21394 26913 205.75 259 214 0 16 2206.8655982018 31827.855697043
43552	2677031 7519 21365 26913 205.5 259 215 235.83721923828 486.85000610352 96400.715881348 44288483.651682
43551	2684550 7514 21365 26913 205.5 259 215 483.14999389648 785.82187652588 118742.64400482 67564080.299421
43590	2692064 5708 22505 27011 216.75 260.25 175 0.973 11.990504229548 539.90747029346 2998.8866731071
43589	2697772 5755 22505 27011 216.75 260.25 175 -2.1371688842773 2.5 39.699392318726 293.92642417499
43588	2703527 5907 22478 27011 216.5 260.25 176 3.4834609031677 16.125 2212.2598261833 30516.851299589
43587	2709434 6196 22451 27011 216.25 260.25 177 483.14999389648 483.14999389648 85517.548919678 41317803.238584
43586	2715630 6157 22451 27011 216.25 260.25 177 184.17810058594 731.63421630859 78961.865768433 39279601.356509
43583	2721787 5831 22505 27087 216.75 261.25 179 0.973 11.90022389248 543.52293935245 2967.4125602637
43582	2727618 6011 22505 27087 216.75 261.25 179 -2.1371688842773 2.5 39.699392318726 289.26238697512
43581	2733629 6080 22478 27087 216.5 261.25 180 3.4834609031677 16 2202.5142741203 29960.480375198
43580	2739709 6308 22451 27087 216.25 261.25 181 237.27502441406 486.85000610352 79920.862548828 36281214.680823
43579	2746017 6325 22451 27087 216.25 261.25 181 483.03060913086 785.82187652588 102554.2126236 59908913.712885
vector 43684  IntersectionExampleScenario.node[90].veinsmobility  posx  ETV
vector 43685  IntersectionExampleScenario.node[90].veinsmobility  posy  ETV
43611	2752496 6026 22707 27257 218.5 263.75 182 0.973 11.810082123732 591.39245763043 3330.9392855108
43610	2758522 5831 22707 27257 218.5 263.75 182 -4.5 2.5 39.869146347046 447.85754445776
43609	2764353 6078 22676 27257 218.25 263.75 183 3.8988225460052 15.875 2254.6669747829 30744.775750539
43608	2770431 6428 22645 27257 218 263.75 184 238.34539794922 483.14999389648 80989.791412354 36593408.382654
43607	2776859 6422 22645 27257 218 263.75 184 164.94219970703 483.22991943359 72348.877288818 30488674.646769
vector 43686  IntersectionExampleScenario.node[90].veinsmobility  speed  ETV
vector 43687  IntersectionExampleScenario.node[90].veinsmobility  acceleration  ETV
vector 43688  IntersectionExampleScenario.node[90].veinsmobility  co2emission  ETV
43604	2783528 6245 22645 27342 218 265 189 0.973 11.648172402475 582.88313665783 2977.7125585217
43603	2789773 6451 22645 27342 218 265 189 -4.5 2.5 40.038900375366 386.75893975054
43602	2796224 6614 22616 27342 217.75 265 190 3.6851847171783 15.720903396606 2286.4748299122 30713.765657486
43601	2802838 6670 22587 27342 217.5 265 191 238.61889648438 486.85000610352 84800.759674072 38637566.663078
43600	2809508 6667 22587 27342 217.5 265 191 483.14999389648 807.09531402588 109625.85010529 65073175.15323
vector 43691  IntersectionExampleScenario.node[91].veinsmobility  posx  ETV
vector 43692  IntersectionExampleScenario.node[91].veinsmobility  posy  ETV
vector 43693  IntersectionExampleScenario.node[91].veinsmobility  speed  ETV
vector 43698  IntersectionExampleScenario.node[92].veinsmobility  posx  ETV
vector 43699  IntersectionExampleScenario.node[92].veinsmobility  posy  ETV
vector 43694  IntersectionExampleScenario.node[91].veinsmobility  acceleration  ETV
vector 43695  IntersectionExampleScenario.node[91].veinsmobility  co2emission  ETV
vector 43700  IntersectionExampleScenario.node[92].veinsmobility  speed  ETV
vector 43701  IntersectionExampleScenario.node[92].veinsmobility  acceleration  ETV
vector 43702  IntersectionExampleScenario.node[92].veinsmobility  co2emission  ETV
43625	2816977 5418 23977 27595 229.25 268.75 159 0.973 11.200708441096 456.56893478093 2264.0329452122
43624	2822395 5288 23977 27595 229.25 268.75 159 -3.8108177185059 2.5 35.795072555542 182.14324847772
[...]
vector 47017  IntersectionExampleScenario.node[566].veinsmobility  posy  ETV
vector 47018  IntersectionExampleScenario.node[566].veinsmobility  speed  ETV
vector 47019  IntersectionExampleScenario.node[566].veinsmobility  acceleration  ETV
vector 47020  IntersectionExampleScenario.node[566].veinsmobility  co2emission  ETV
46824	20097844 9219 168714 177681 1709.5 1776.5 269 0.973 11.54047740176 629.68666037445 2868.4551925741
46823	20107063 9487 168714 177681 1709.5 1776.5 269 -3.8290424346924 2.5 37.32285118103 354.37458025355
46822	20116550 9520 168685 177681 1709.25 1776.5 270 0 15.5 2213.8210591413 29615.108253478
46821	20126070 9968 168656 177681 1709 1776.5 271 184.17810058594 732.91142272949 122999.28111267 60031572.957134
46820	20136038 10026 168656 177681 1709 1776.5 271 486.85000610352 486.85000610352 131936.35165405 64233213.608051
vector 47023  IntersectionExampleScenario.node[567].veinsmobility  posx  ETV
vector 47024  IntersectionExampleScenario.node[567].veinsmobility  posy  ETV
vector 47025  IntersectionExampleScenario.node[567].veinsmobility  speed  ETV
vector 47026  IntersectionExampleScenario.node[567].veinsmobility  acceleration  ETV
vector 47027  IntersectionExampleScenario.node[567].veinsmobility  co2emission  ETV
46831	20146470 9377 168863 178000 1710.75 1778.75 273 0.973 11.810082123732 666.07266599854 3111.4584429607
46830	20155847 9777 168863 178000 1710.75 1778.75 273 -4.5 2.5 40.038900375366 435.45349155965
46829	20165624 9784 168832 178000 1710.5 1778.75 274 0 15.875 2265.5458860081 30038.917022788
46828	20175408 10146 168801 178000 1710.25 1778.75 275 162.90466308594 483.18948364258 113570.99606323 49221669.482616
46827	20185554 10174 168801 178000 1710.25 1778.75 275 486.85000610352 732.10493469238 141802.47848511 74180282.460045
46838	20195728 9675 169053 178351 1712.25 1781.5 278 0.973 11.093806525473 645.66150340626 2807.6892069314
46837	20205403 9781 169053 178351 1712.25 1781.5 278 -4.5 2.5 36.813589096069 401.10635413976
46836	20215184 10084 169020 178351 1712 1781.5 279 0 15.28164100647 2349.9022864122 30488.763512203
46835	20225268 10313 168987 178351 1711.75 1781.5 280 153.24768066406 735.45358276367 122662.58862305 58813064.718509
46834	20235581 10360 168987 178351 1711.75 1781.5 280 486.85000610352 486.85000610352 136318.00170898 66366419.964038
46894	20245941 6761 171872 178646 1735 1784 197 0.973 11.200708441096 550.25047138593 2755.309320427
46893	20252702 6781 171872 178646 1735 1784 197 -3.0683937072754 2.5000019073486 36.134572982788 324.69831452016
46892	20259483 7035 171847 178646 1734.75 1784 198 2.6326246261597 15.02499961853 2202.6854562759 27975.289288506
46891	20266518 7327 171822 178646 1734.5 1784 199 184.17810058594 486.8717956543 80346.805236816 34287524.827767
46890	20273845 7352 171822 178646 1734.5 1784 199 238.24078369141 486.85003662109 88270.776428223 40209253.373977
46901	20281197 6377 172323 178791 1739.5 1785.25 184 0.93267569035665 11.810082123732 592.62366146052 3216.6287374438
46900	20287574 6175 172323 178791 1739.5 1785.25 184 -4.5 2.5 42.585195541382 414.48726026039
46899	20293749 6515 172296 178791 1739.25 1785.25 185 2.5945994853973 16.313547134399 2195.1665599346 30000.679951478
46898	20300264 6854 172269 178791 1739 1785.25 186 184.17810058594 483.14999389648 74733.091949463 31773561.460115
46897	20307118 6877 172269 178791 1739 1785.25 186 486.85000610352 735.14268493652 98377.497238159 52990403.861558
46936	20313995 6014 172870 179052 1744.25 1787.5 174 0.973 11.200708441096 530.64698314478 2795.622859507
46935	20320009 5785 172870 179052 1744.25 1787.5 174 -3.296688079834 2.5 38.680875778198 278.50307003241
46934	20325794 6188 172837 179052 1744 1787.5 175 5.6500000953674 15.406621932983 2208.0172777176 29493.080288711
46933	20331982 6474 172804 179052 1743.75 1787.5 176 184.17810058594 486.85000610352 70415.814605713 29969910.015929
46932	20338456 6506 172804 179052 1743.75 1787.5 176 237.06762695312 486.85000610352 77325.658081055 34965678.653455
46887	20344962 7656 171372 179197 1730.5 1788.75 234 0.973 11.90022389248 600.71789552692 3064.2899268468
46886	20352618 7275 171372 179197 1730.5 1788.75 234 -7.3463582992554 4 39.190130233765 492.77085333232
46885	20359893 7285 171341 179197 1730.25 1788.75 235 0 16 2057.8777356148 29291.973264243
46884	20367178 8726 171310 179197 1730 1788.75 236 483.14999389648 733.1414642334 122307.73712158 64476567.121131
46883	20375904 8706 171310 179197 1730 1788.75 236 214.94219970703 486.85000610352 102035.89456177 45660344.24522
vector 47030  IntersectionExampleScenario.node[568].veinsmobility  posx  ETV
vector 47031  IntersectionExampleScenario.node[568].veinsmobility  posy  ETV
vector 47032  IntersectionExampleScenario.node[568].veinsmobility  speed  ETV
vector 47033  IntersectionExampleScenario.node[568].veinsmobility  acceleration  ETV
vector 47034  IntersectionExampleScenario.node[568].veinsmobility  co2emission  ETV
vector 47037  IntersectionExampleScenario.node[569].veinsmobility  posx  ETV
vector 47038  IntersectionExampleScenario.node[569].veinsmobility  posy  ETV
vector 47044  IntersectionExampleScenario.node[570].veinsmobility  posx  ETV
vector 47045  IntersectionExampleScenario.node[570].veinsmobility  posy  ETV
vector 47039  IntersectionExampleScenario.node[569].veinsmobility  speed  ETV
vector 47040  IntersectionExampleScenario.node[569].veinsmobility  acceleration  ETV
vector 47041  IntersectionExampleScenario.node[569].veinsmobility  co2emission  ETV
vector 47046  IntersectionExampleScenario.node[570].veinsmobility  speed  ETV
46873	20385657 8262 171185 179575 1729 1792 253 0.973 11.810082123732 626.61797237902 3088.4631181478
46872	20393919 7697 171185 179575 1729 1792 253 -6.8117866516113 4 38.850629806519 493.85133582851
46871	20401616 7876 171152 179575 1728.75 1792 254 0 15.875 2184.2243671417 30943.080517839
46870	20409492 9425 171119 179575 1728.5 1792 255 486.85000610352 733.97547912598 132313.41725159 69734602.023578
46869	20418917 9423 171119 179575 1728.5 1792 255 486.75677490234 785.82187652588 139026.89090729 77858405.153645
vector 47047  IntersectionExampleScenario.node[570].veinsmobility  acceleration  ETV
vector 47048  IntersectionExampleScenario.node[570].veinsmobility  co2emission  ETV
46866	20428511 8516 171152 179700 1728.75 1793 258 0.973 11.130028146321 674.14792012345 3193.4923300077
46865	20437027 8020 171152 179700 1728.75 1793 258 -4.5 2.5 41.782354354858 539.05196011921
46864	20445047 8501 171119 179700 1728.5 1793 259 0 16.113563537598 2190.0538146496 30601.8592518
46863	20453548 9611 171088 179700 1728.25 1793 260 483.14999389648 732.1001739502 133771.66880798 69921128.388899
46862	20463159 9599 171088 179700 1728.25 1793 260 184.17810058594 486.85000610352 109215.48104858 48135128.668017
46880	20472758 9122 171251 179855 1729.5 1794.25 260 0.973 11.36141391502 621.47662157027 2691.0844205779
46879	20481880 9470 171251 179855 1729.5 1794.25 260 -4.5 2.5000009536743 36.134572982788 385.88890514935
46878	20491350 9307 171219 179855 1729.25 1794.25 261 0 15.25 2278.2870239411 29701.443162538
46877	20500657 9681 171185 179855 1729 1794.25 262 236.21649169922 483.14999389648 118075.43450928 54335582.516584
46876	20510338 9667 171185 179855 1729 1794.25 262 161.1796875 483.14999389648 106890.68136597 46217205.072202
46908	20520005 7539 172323 179974 1739.5 1795.25 224 0.973 12.476117499139 626.81336742974 3306.5233765758
46907	20527544 7910 172323 179974 1739.5 1795.25 224 -3.7970821857452 2.5 44.576177597046 349.96820578615
46906	20535454 7997 172296 179974 1739.25 1795.25 225 0 16.794044494629 2187.1302436646 29198.345780796
46905	20543451 8338 172269 179974 1739 1795.25 226 236.85900878906 483.14999389648 101423.26953125 46515740.547429
46904	20551789 8317 172269 179974 1739 1795.25 226 184.17810058594 483.26727294922 92819.542144775 39942556.98576
46929	20560106 7019 172870 180032 1744.25 1795.75 207 0.973 11.648172402475 574.815719636 2931.0127880744
46928	20567125 7113 172870 180032 1744.25 1795.75 207 -20.182445526123 4 38.341367721558 786.34985276978
46927	20574238 7350 172837 180032 1744 1795.75 208 0 15.64999961853 2173.4806702137 28621.70255426
46926	20581588 7731 172804 180032 1743.75 1795.75 209 486.85000610352 731.70491027832 109842.74995422 58732746.017435
46925	20589319 7722 172804 180032 1743.75 1795.75 209 486.80752563477 785.82187652588 117035.00258636 67405751.765062
vector 47051  IntersectionExampleScenario.node[571].veinsmobility  posx  ETV
vector 47052  IntersectionExampleScenario.node[571].veinsmobility  posy  ETV
vector 47053  IntersectionExampleScenario.node[571].veinsmobility  speed  ETV
vector 47054  IntersectionExampleScenario.node[571].veinsmobility  acceleration  ETV
vector 47055  IntersectionExampleScenario.node[571].veinsmobility  co2emission  ETV
vector 47058  IntersectionExampleScenario.node[572].veinsmobility  posx  ETV
vector 47059  IntersectionExampleScenario.node[572].veinsmobility  posy  ETV
46943	20597603 6957 173344 180405 1748 1799 205 0.973 11.36141391502 551.68326694717 2770.9285243527
46942	20604560 7185 173344 180405 1748 1799 205 -4.5 2.5 36.643835067749 368.71600982559
46941	20611745 7295 173311 180405 1747.75 1799 206 1.2399719953537 15.25 2180.6680270433 27438.268563636
46940	20619040 7645 173278 180405 1747.5 1799 207 237.77221679688 483.14999389648 91667.650146484 41619330.552629
46939	20626685 7632 173278 180405 1747.5 1799 207 184.17810058594 483.15353393555 83738.411590576 35699673.109742
vector 47060  IntersectionExampleScenario.node[572].veinsmobility  speed  ETV
vector 47061  IntersectionExampleScenario.node[572].veinsmobility  acceleration  ETV
vector 47062  IntersectionExampleScenario.node[572].veinsmobility  co2emission  ETV
46915	20634567 7712 172436 180522 1740.5 1800 239 0.973 11.450879080643 570.6090624669 2744.766659577
46914	20642279 7161 172436 180522 1740.5 1800 239 -9.2727584838867 4 36.643964767456 493.89910828627
46913	20649440 7308 172407 180522 1740.25 1800 240 0 15.375 1867.9268054962 25457.561467935
46912	20656748 8905 172378 180522 1740 1800 241 483.14999389648 785.82187652588 132407.35919952 74788632.659833
46911	20665653 8911 172378 180522 1740 1800 241 483.14999389648 649.5765838623 120324.503479 60441513.654027
46922	20674564 7939 172630 180522 1742.25 1800 232 0.973 11.200708441096 548.34969435105 2555.9150708177
46921	20682503 7964 172630 180522 1742.25 1800 232 -4.5 2.5 35.287794113159 410.19920786161
46920	20690467 8022 172601 180522 1742 1800 233 0 15.02499961853 1759.1006972464 22938.646911161
46919	20698489 8642 172572 180522 1741.75 1800 234 483.00225830078 805.05782318115 131661.23978424 76353935.886178
46918	20707131 8654 172572 180522 1741.75 1800 234 483.14999389648 602.7121887207 115159.06854248 56820391.77107
46950	20715785 6958 173416 180522 1748.5 1800 207 0.973 11.36141391502 519.90437962328 2692.7221754389
46949	20722743 7323 173416 180522 1748.5 1800 207 -3.9147629737854 2.5 38.194471359253 357.63613619888
46948	20730066 7323 173379 180522 1748.25 1800 208 0 15.25 1501.2826652937 18103.61967151
46947	20737389 7709 173344 180522 1748 1800 209 486.85000610352 785.82187652588 118513.35662079 68902508.138156
46946	20745098 7729 173344 180522 1748 1800 209 407.44854736328 483.14999389648 100079.92810059 47962615.195534
46957	20752827 6125 173453 180522 1748.75 1800 206 0.973 11.648172402475 370.42744013353 1572.3243589046
46956	20758952 6015 173453 180522 1748.75 1800 206 -7.0410857200623 2.5 -22.60000038147 327.88303997769
46955	20764967 6046 173416 180522 1748.5 1800 207 0 15.64999961853 1147.9091860056 15312.509062526
46954	20771013 7663 173379 180522 1748.25 1800 208 184.17810058594 471.60000610352 85079.390808105 36601796.725669
46953	20778676 7696 173379 180522 1748.25 1800 208 486.85000610352 486.85000610352 101264.80126953 49300769.116142
46964	20786372 6217 173531 180522 1749.25 1800 204 0.973 11.48365768633 370.9036083211 1471.2516740507
46963	20792589 5951 173531 180522 1749.25 1800 204 -4.5 2.5 -22.60000038147 295.84265423036
46962	20798540 6078 173492 180522 1749 1800 205 0 15.420751571655 1218.5283250809 16637.602559268
46961	20804618 7606 173453 180522 1748.75 1800 206 160.43438720703 465.33941650391 81245.162384033 34160037.87113
46960	20812224 7621 173453 180522 1748.75 1800 206 486.85000610352 486.85000610352 100291.10125732 48826723.259256
46971	20819845 6512 173847 180522 1751.25 1800 196 0.973 11.356673612263 378.88062053821 1560.471186191
46970	20826357 6746 173847 180522 1751.25 1800 196 -4.5 2.5 -22.60000038147 302.48523616528
46969	20833103 6706 173806 180522 1751 1800 197 0 15.63153553009 1217.6531898361 16576.767141506
46968	20839809 7285 173765 180522 1750.75 1800 198 154.20623779297 458.94171142578 76452.77331543 31551173.651261
46967	20847094 7325 173765 180522 1750.75 1800 198 486.85000610352 486.85000610352 96396.301208496 46930539.831713
46978	20854419 5560 175081 180522 1758.75 1800 166 0.973 11.648172402475 333.86275298459 1493.07606163
46977	20859979 6268 175081 180522 1758.75 1800 166 -3.9232580661774 2.5 -22.60000038147 220.91643928177
46976	20866247 6121 175038 180522 1758.5 1800 167 0 15.64999961853 1071.6469959477 13873.313358899
46975	20872368 6182 174995 180522 1758.25 1800 168 184.17810058594 452.48397827148 64389.427490234 26029709.848385
46974	20878550 6216 174995 180522 1758.25 1800 168 486.85000610352 486.85000610352 81790.801025391 39819851.978423
46985	20884766 4632 176165 180522 1765.75 1800 138 0.973 11.648172402475 441.06303656334 2689.5616139886
46984	20889398 4666 176165 180522 1765.75 1800 138 -2.153564453125 2.5 38.629766464233 307.79166830274
46983	20894064 4938 176128 180522 1765.5 1800 139 2.8028349876404 15.64999961853 1467.5481295586 18144.766931988
46982	20899002 5171 176091 180522 1765.25 1800 140 424.31802368164 785.82187652588 82958.825141907 50631443.887715
46981	20904173 5180 176091 180522 1765.25 1800 140 483.14999389648 483.14999389648 67640.999145508 32680748.324304
46992	20909353 3886 176939 180522 1771.25 1800 116 0.973 11.648172402475 366.36749830701 2158.628217683
46991	20913239 3943 176939 180522 1771.25 1800 116 -3.8940582275391 2.5 26.39999961853 285.27257076338
46990	20917182 4093 176902 180522 1771 1800 117 5.6500000953674 15.64999961853 1306.4930715561 16001.855898014
46989	20921275 4352 176867 180522 1770.75 1800 118 482.93377685547 785.82187652588 72214.68901825 45323191.057903
46988	20925627 4365 176867 180522 1770.75 1800 118 483.14999389648 509.08395385742 57169.411773682 27700262.560102
46999	20929992 3918 176975 180522 1771.5 1800 115 0.973 11.022649444153 338.09494984459 1802.0180007832
46998	20933910 4024 176975 180522 1771.5 1800 115 -2.8830413818359 2.5 21.39999961853 202.17098836896
46997	20937934 4149 176939 180522 1771.25 1800 116 5.6500000953674 15.311400413513 1355.4997582436 16843.066536518
46996	20942083 4317 176902 180522 1771 1800 117 475.19955444336 810.23281097412 74340.490211487 48501690.372897
46995	20946400 4327 176902 180522 1771 1800 117 483.14999389648 483.14999389648 56528.549285889 27311768.242454
47006	20950727 3483 177388 180522 1774.5 1800 103 0.973 11.200708441096 267.53408773428 1316.3780909525
47005	20954210 3443 177388 180522 1774.5 1800 103 -6.8669724464417 2.5 -22.60000038147 297.62419157228
47004	20957653 3652 177351 180522 1774.25 1800 104 0 15.02499961853 1147.1561464071 15500.620984181
47003	20961305 3883 177316 180522 1774 1800 105 483.14999389648 483.14999389648 50730.749359131 24510561.243228
47002	20965188 3864 177316 180522 1774 1800 105 184.17810058594 471.60000610352 36322.893768311 13586453.562155
47013	20969052 3427 177425 180522 1774.75 1800 102 0.973 11.648172402475 276.30358182256 1451.1091424391
47012	20972479 3401 177425 180522 1774.75 1800 102 -7.4922199249268 2.5 -22.60000038147 324.91023982524
47011	20975880 3581 177388 180522 1774.5 1800 103 0 15.64999961853 1146.8506031036 16064.521389431
47010	20979461 3848 177351 180522 1774.25 1800 104 486.85000610352 486.85000610352 50632.400634766 24650384.558071
47009	20983309 3837 177351 180522 1774.25 1800 104 498.39999389648 785.82187652588 64681.862571716 41262571.651378
47020	20987146 3274 177681 180522 1776.5 1800 95 0.973 11.200708441096 271.01506176072 1358.6708669436
47019	20990420 3199 177681 180522 1776.5 1800 95 -4.5 2.5 -19.17532658577 285.09961429859
47018	20993619 3533 177644 180522 1776.25 1800 96 0.85616844892502 15.304162025452 1193.9563183188 16629.912599134
47017	20997152 3587 177607 180522 1776 1800 97 483.14999389648 483.14999389648 46865.549407959 22643089.910411
47016	21000739 3541 177607 180522 1776 1800 97 166.078125 464.34558105469 31266.290985107 11030968.93864
47027	21004280 3010 177860 180522 1777.75 1800 90 0.973 11.200708441096 253.32206397531 1368.9476495011
47026	21007290 3316 177860 180522 1777.75 1800 90 -2.5857124328613 2.5 21.39999961853 121.47767484386
47025	21010606 3337 177825 180522 1777.5 1800 91 5.6500000953674 15.046356201172 1157.7265262604 15143.366013391
47024	21013943 3396 177790 180522 1777.25 1800 92 500.03707885742 785.82187652588 59269.759407043 38911427.277389
47023	21017339 3404 177790 180522 1777.25 1800 92 483.14999389648 483.14999389648 44449.799438477 21475920.3274
47034	21020743 1408 179395 180522 1790.5 1800 39 0.973 10.021553385555 182.56918772009 1109.6285580897
47033	21022151 1368 179395 180522 1790.5 1800 39 -4.5 2.5 37.804899215698 139.36981122291
47032	21023519 1477 179366 180522 1790.25 1800 40 5.6500000953674 15.101224899292 427.55773925781 5050.9009213043
47031	21024996 1515 179337 180522 1790 1800 41 486.85000610352 486.85000610352 19960.850250244 9717940.0661627
47030	21026511 1512 179337 180522 1790 1800 41 683.68199157715 785.82187652588 30534.260482788 22778445.34539
47041	21028023 1209 179575 180522 1792 1800 33 0.973 9.0482384696848 154.76323583032 941.07044365649
47040	21029232 1183 179575 180522 1792 1800 33 -0.21737289428711 2.5 37.283315658569 75.907887232144
47039	21030415 1248 179542 180522 1791.75 1800 34 5.6500000953674 14.996151924133 381.25272369385 4557.1974749241
47038	21031663 1294 179511 180522 1791.5 1800 35 486.85000610352 486.85000610352 17039.750213623 8295802.4955048
47037	21032957 1288 179511 180522 1791.5 1800 35 715.76377868652 806.11563110352 26903.017608643 20705704.468504
47048	21034245 1181 179607 180522 1792.25 1800 32 1.4419862817308 10.756497587458 146.05144039207 994.95638766542
47047	21035426 1083 179607 180522 1792.25 1800 32 -0.18317794799805 2.5 34.271413803101 87.576683362542
47046	21036509 1209 179575 180522 1792 1800 33 5.6500000953674 14.39999961853 406.82421588898 5270.5887417531
47045	21037718 1257 179542 180522 1791.75 1800 34 486.85000610352 486.85000610352 16552.90020752 8058779.5670618
47044	21038975 1245 179542 180522 1791.75 1800 34 657.66470336914 755.05781555176 24250.14276886 17328654.031979
47055	21040220 476 180176 180522 1797 1800 13 5.2162187258585 10.315404520939 100.64515864481 812.01557512667
47054	21040696 335 180176 180522 1797 1800 13 2.4999980926514 2.5 32.499998092651 81.24999046326
47053	21041031 510 180147 180522 1796.75 1800 14 5.6500000953674 13.77499961853 135.97499656677 1409.5242963886
47052	21041541 542 180118 180522 1796.5 1800 15 184.17810058594 213.71246337891 2940.9748535156 577965.59088425
47051	21042083 554 180118 180522 1796.5 1800 15 486.85000610352 486.85000610352 7302.7500915527 3555343.9266449
47062	21042637 110 180463 180522 1799.5 1800 3 5.2162187258585 6.0461819274774 16.892854010144 95.467258699338
47061	21042747 74 180463 180522 1799.5 1800 3 2.5 2.5 7.5 18.75
47060	21042821 148 180434 180522 1799.25 1800 4 5.6500000953674 7.5250000953674 26.35000038147 175.53375502586
47059	21042969 183 180405 180522 1799 1800 5 168.58435058594 173.05621337891 851.55303955078 145043.37491707
47058	21043152 183 180405 180522 1799 1800 5 486.85000610352 486.85000610352 2434.2500305176 1185114.642215
43050	21043335 637 0 180521 0 1800 31 0 27 527 9795
43051	21043972 653 0 180521 0 1800 31 0 204 3176 434524
