version 2
run nodebug-11-20200606-00:05:24-5072
attr configname nodebug
attr datetime 20200606-00:05:24
attr experiment nodebug
attr inifile omnetpp.ini
attr iterationvars ""
attr iterationvars2 $repetition=11
attr measurement ""
attr network "\"org.car2x.veins.modules.application.ExtTraCIScenarioManagerLaunchd.IntersectionExampleScenario\""
attr processid 5072
attr repetition 11
attr replication #11
attr resultdir results
attr runnumber 11
attr seedset 11
param **.coreDebug false
param **.debug false
param *.**.nic.mac1609_4.bitrate 18Mbps
param *.**.nic.mac1609_4.txPower 20mW
param *.**.nic.mac1609_4.useServiceChannel false
param *.**.nic.phy80211p.analogueModels "xmldoc(\"config.xml\")"
param *.**.nic.phy80211p.decider "xmldoc(\"config.xml\")"
param *.**.nic.phy80211p.sensitivity -89dBm
param *.**.nic.phy80211p.thermalNoise -110dBm
param *.**.nic.phy80211p.usePropagationDelay true
param *.**.nic.phy80211p.useThermalNoise true
param *.annotations.draw false
param *.connectionManager.alpha 2.0
param *.connectionManager.carrierFrequency "5.890e9 Hz"
param *.connectionManager.pMax 20mW
param *.connectionManager.sat -89dBm
param *.connectionManager.sendDirect true
param *.manager.autoShutdown true
param *.manager.host "\"localhost\""
param *.manager.launchConfig "xmldoc(\"paramics.launchd.xml\")"
param *.manager.margin 25
param *.manager.moduleDisplayString "\"\""
param *.manager.moduleName "\"node\""
param *.manager.moduleType "\"org.car2x.veins.nodes.Car\""
param *.manager.port 9999
param *.manager.updateInterval 250ms
param *.node[*0].veinsmobility.accidentCount 0
param *.node[*0].veinsmobility.accidentDuration 30s
param *.node[*0].veinsmobility.accidentStart 75s
param *.node[*].appl.LiderSelectZoneRadio 55.0
param *.node[*].appl.ShareDataZoneRadio 110.0
param *.node[*].appl.TiempoSemaforo 30.0
param *.node[*].appl.beaconInterval 1s
param *.node[*].appl.beaconPriority 3
param *.node[*].appl.dataOnSch false
param *.node[*].appl.dataPriority 2
param *.node[*].appl.debug false
param *.node[*].appl.headerLength "256 bit"
param *.node[*].appl.maxOffset 0.005s
param *.node[*].appl.sendBeacons false
param *.node[*].appl.sendData true
param *.node[*].applType "\"Dummy\""
param *.node[*].mobilityType "\"TraCIMobility\""
param *.node[*].mobilityType.debug true
param *.node[*].veinsmobility.x 0
param *.node[*].veinsmobility.y 0
param *.node[*].veinsmobility.z 1.895
param *.node[*].veinsmobilityType "\"org.car2x.veins.modules.mobility.traci.TraCIMobility\""
param *.node[*].veinsmobilityType.debug true
param *.playgroundSizeX 8500m
param *.playgroundSizeY 8500m
param *.playgroundSizeZ 50m
param *.world.use2D false
param *.world.useTorus false

scalar IntersectionExampleScenario.node[3].appl 	VehicleRemoved 	0
scalar IntersectionExampleScenario.node[3].appl 	ArrivedAtDest 	1
scalar IntersectionExampleScenario.node[3].appl 	IntersectionEnterTime 	5.5
scalar IntersectionExampleScenario.node[3].appl 	IntersectionExitTime 	28.079041751887
scalar IntersectionExampleScenario.node[3].appl 	NumberOfCollisions 	0
scalar IntersectionExampleScenario.node[3].nic.phy80211p 	busyTime 	0
scalar IntersectionExampleScenario.node[3].nic.mac1609_4 	ReceivedUnicastPackets 	0
scalar IntersectionExampleScenario.node[3].nic.mac1609_4 	ReceivedBroadcasts 	0
scalar IntersectionExampleScenario.node[3].nic.mac1609_4 	SentPackets 	0
scalar IntersectionExampleScenario.node[3].nic.mac1609_4 	SNIRLostPackets 	0
scalar IntersectionExampleScenario.node[3].nic.mac1609_4 	RXTXLostPackets 	0
scalar IntersectionExampleScenario.node[3].nic.mac1609_4 	TotalLostPackets 	0
scalar IntersectionExampleScenario.node[3].nic.mac1609_4 	DroppedPacketsInMac 	0
scalar IntersectionExampleScenario.node[3].nic.mac1609_4 	TooLittleTime 	0
scalar IntersectionExampleScenario.node[3].nic.mac1609_4 	TimesIntoBackoff 	0
scalar IntersectionExampleScenario.node[3].nic.mac1609_4 	SlotsBackoff 	0
scalar IntersectionExampleScenario.node[3].nic.mac1609_4 	NumInternalContention 	0
scalar IntersectionExampleScenario.node[3].nic.mac1609_4 	totalBusyTime 	0
scalar IntersectionExampleScenario.node[3].veinsmobility 	startTime 	5.5
scalar IntersectionExampleScenario.node[3].veinsmobility 	totalTime 	40.5
scalar IntersectionExampleScenario.node[3].veinsmobility 	stopTime 	46.25
scalar IntersectionExampleScenario.node[3].veinsmobility 	minSpeed 	5.6500000953674
scalar IntersectionExampleScenario.node[3].veinsmobility 	maxSpeed 	14.39999961853
scalar IntersectionExampleScenario.node[3].veinsmobility 	totalDistance 	512.05325401731
scalar IntersectionExampleScenario.node[3].veinsmobility 	totalCO2Emission 	114.12664537452
scalar IntersectionExampleScenario.node[1].appl 	VehicleRemoved 	0
scalar IntersectionExampleScenario.node[1].appl 	ArrivedAtDest 	1
scalar IntersectionExampleScenario.node[1].appl 	IntersectionEnterTime 	3.25
scalar IntersectionExampleScenario.node[1].appl 	IntersectionExitTime 	30.560921450611
scalar IntersectionExampleScenario.node[1].appl 	NumberOfCollisions 	0
scalar IntersectionExampleScenario.node[1].nic.phy80211p 	busyTime 	0
scalar IntersectionExampleScenario.node[1].nic.mac1609_4 	ReceivedUnicastPackets 	0
scalar IntersectionExampleScenario.node[1].nic.mac1609_4 	ReceivedBroadcasts 	0
scalar IntersectionExampleScenario.node[1].nic.mac1609_4 	SentPackets 	0
scalar IntersectionExampleScenario.node[1].nic.mac1609_4 	SNIRLostPackets 	0
scalar IntersectionExampleScenario.node[1].nic.mac1609_4 	RXTXLostPackets 	0
scalar IntersectionExampleScenario.node[1].nic.mac1609_4 	TotalLostPackets 	0
scalar IntersectionExampleScenario.node[1].nic.mac1609_4 	DroppedPacketsInMac 	0
scalar IntersectionExampleScenario.node[1].nic.mac1609_4 	TooLittleTime 	0
scalar IntersectionExampleScenario.node[1].nic.mac1609_4 	TimesIntoBackoff 	0
scalar IntersectionExampleScenario.node[1].nic.mac1609_4 	SlotsBackoff 	0
scalar IntersectionExampleScenario.node[1].nic.mac1609_4 	NumInternalContention 	0
scalar IntersectionExampleScenario.node[1].nic.mac1609_4 	totalBusyTime 	0
scalar IntersectionExampleScenario.node[1].veinsmobility 	startTime 	3.25
scalar IntersectionExampleScenario.node[1].veinsmobility 	totalTime 	45
scalar IntersectionExampleScenario.node[1].veinsmobility 	stopTime 	48.5
scalar IntersectionExampleScenario.node[1].veinsmobility 	minSpeed 	5.3650550842285
scalar IntersectionExampleScenario.node[1].veinsmobility 	maxSpeed 	14.283674240112
scalar IntersectionExampleScenario.node[1].veinsmobility 	totalDistance 	545.73959410614
scalar IntersectionExampleScenario.node[1].veinsmobility 	totalCO2Emission 	131.10935948843
scalar IntersectionExampleScenario.node[2].appl 	VehicleRemoved 	0
scalar IntersectionExampleScenario.node[2].appl 	ArrivedAtDest 	1
scalar IntersectionExampleScenario.node[2].appl 	IntersectionEnterTime 	4.75
scalar IntersectionExampleScenario.node[2].appl 	IntersectionExitTime 	32.263592008851
scalar IntersectionExampleScenario.node[2].appl 	NumberOfCollisions 	0
scalar IntersectionExampleScenario.node[2].nic.phy80211p 	busyTime 	0
scalar IntersectionExampleScenario.node[2].nic.mac1609_4 	ReceivedUnicastPackets 	0
scalar IntersectionExampleScenario.node[2].nic.mac1609_4 	ReceivedBroadcasts 	0
scalar IntersectionExampleScenario.node[2].nic.mac1609_4 	SentPackets 	0
scalar IntersectionExampleScenario.node[2].nic.mac1609_4 	SNIRLostPackets 	0
scalar IntersectionExampleScenario.node[2].nic.mac1609_4 	RXTXLostPackets 	0
scalar IntersectionExampleScenario.node[2].nic.mac1609_4 	TotalLostPackets 	0
scalar IntersectionExampleScenario.node[2].nic.mac1609_4 	DroppedPacketsInMac 	0
scalar IntersectionExampleScenario.node[2].nic.mac1609_4 	TooLittleTime 	0
scalar IntersectionExampleScenario.node[2].nic.mac1609_4 	TimesIntoBackoff 	0
scalar IntersectionExampleScenario.node[2].nic.mac1609_4 	SlotsBackoff 	0
scalar IntersectionExampleScenario.node[2].nic.mac1609_4 	NumInternalContention 	0
scalar IntersectionExampleScenario.node[2].nic.mac1609_4 	totalBusyTime 	0
scalar IntersectionExampleScenario.node[2].veinsmobility 	startTime 	4.75
scalar IntersectionExampleScenario.node[2].veinsmobility 	totalTime 	43.5
scalar IntersectionExampleScenario.node[2].veinsmobility 	stopTime 	48.5
scalar IntersectionExampleScenario.node[2].veinsmobility 	minSpeed 	5.6500000953674
scalar IntersectionExampleScenario.node[2].veinsmobility 	maxSpeed 	16
scalar IntersectionExampleScenario.node[2].veinsmobility 	totalDistance 	571.69295008987
scalar IntersectionExampleScenario.node[2].veinsmobility 	totalCO2Emission 	136.29130027661
scalar IntersectionExampleScenario.node[0].appl 	VehicleRemoved 	0
scalar IntersectionExampleScenario.node[0].appl 	ArrivedAtDest 	1
scalar IntersectionExampleScenario.node[0].appl 	IntersectionEnterTime 	2.5
scalar IntersectionExampleScenario.node[0].appl 	IntersectionExitTime 	34.340616740665
scalar IntersectionExampleScenario.node[0].appl 	NumberOfCollisions 	0
scalar IntersectionExampleScenario.node[0].nic.phy80211p 	busyTime 	0
scalar IntersectionExampleScenario.node[0].nic.mac1609_4 	ReceivedUnicastPackets 	0
scalar IntersectionExampleScenario.node[0].nic.mac1609_4 	ReceivedBroadcasts 	0
scalar IntersectionExampleScenario.node[0].nic.mac1609_4 	SentPackets 	0
scalar IntersectionExampleScenario.node[0].nic.mac1609_4 	SNIRLostPackets 	0
scalar IntersectionExampleScenario.node[0].nic.mac1609_4 	RXTXLostPackets 	0
scalar IntersectionExampleScenario.node[0].nic.mac1609_4 	TotalLostPackets 	0
scalar IntersectionExampleScenario.node[0].nic.mac1609_4 	DroppedPacketsInMac 	0
scalar IntersectionExampleScenario.node[0].nic.mac1609_4 	TooLittleTime 	0
scalar IntersectionExampleScenario.node[0].nic.mac1609_4 	TimesIntoBackoff 	0
scalar IntersectionExampleScenario.node[0].nic.mac1609_4 	SlotsBackoff 	0
scalar IntersectionExampleScenario.node[0].nic.mac1609_4 	NumInternalContention 	0
scalar IntersectionExampleScenario.node[0].nic.mac1609_4 	totalBusyTime 	0
scalar IntersectionExampleScenario.node[0].veinsmobility 	startTime 	2.5
scalar IntersectionExampleScenario.node[0].veinsmobility 	totalTime 	47.75
scalar IntersectionExampleScenario.node[0].veinsmobility 	stopTime 	50.5
scalar IntersectionExampleScenario.node[0].veinsmobility 	minSpeed 	0
scalar IntersectionExampleScenario.node[0].veinsmobility 	maxSpeed 	15.64999961853
scalar IntersectionExampleScenario.node[0].veinsmobility 	totalDistance 	550.51123155704
scalar IntersectionExampleScenario.node[0].veinsmobility 	totalCO2Emission 	140.84571213873
scalar IntersectionExampleScenario.node[10].appl 	VehicleRemoved 	0
scalar IntersectionExampleScenario.node[10].appl 	ArrivedAtDest 	1
scalar IntersectionExampleScenario.node[10].appl 	IntersectionEnterTime 	12.25
scalar IntersectionExampleScenario.node[10].appl 	IntersectionExitTime 	37.309556646127
scalar IntersectionExampleScenario.node[10].appl 	NumberOfCollisions 	0
scalar IntersectionExampleScenario.node[10].nic.phy80211p 	busyTime 	0
scalar IntersectionExampleScenario.node[10].nic.mac1609_4 	ReceivedUnicastPackets 	0
scalar IntersectionExampleScenario.node[10].nic.mac1609_4 	ReceivedBroadcasts 	0
scalar IntersectionExampleScenario.node[10].nic.mac1609_4 	SentPackets 	0
scalar IntersectionExampleScenario.node[10].nic.mac1609_4 	SNIRLostPackets 	0
scalar IntersectionExampleScenario.node[10].nic.mac1609_4 	RXTXLostPackets 	0
scalar IntersectionExampleScenario.node[10].nic.mac1609_4 	TotalLostPackets 	0
scalar IntersectionExampleScenario.node[10].nic.mac1609_4 	DroppedPacketsInMac 	0
scalar IntersectionExampleScenario.node[10].nic.mac1609_4 	TooLittleTime 	0
scalar IntersectionExampleScenario.node[10].nic.mac1609_4 	TimesIntoBackoff 	0
scalar IntersectionExampleScenario.node[10].nic.mac1609_4 	SlotsBackoff 	0
scalar IntersectionExampleScenario.node[10].nic.mac1609_4 	NumInternalContention 	0
scalar IntersectionExampleScenario.node[10].nic.mac1609_4 	totalBusyTime 	0
scalar IntersectionExampleScenario.node[10].veinsmobility 	startTime 	12.25
scalar IntersectionExampleScenario.node[10].veinsmobility 	totalTime 	42
scalar IntersectionExampleScenario.node[10].veinsmobility 	stopTime 	54.5
scalar IntersectionExampleScenario.node[10].veinsmobility 	minSpeed 	5.6500000953674
scalar IntersectionExampleScenario.node[10].veinsmobility 	maxSpeed 	15.25
scalar IntersectionExampleScenario.node[10].veinsmobility 	totalDistance 	545.78501128664
scalar IntersectionExampleScenario.node[10].veinsmobility 	totalCO2Emission 	138.46655140113
scalar IntersectionExampleScenario.node[13].appl 	VehicleRemoved 	0
scalar IntersectionExampleScenario.node[13].appl 	ArrivedAtDest 	1
scalar IntersectionExampleScenario.node[13].appl 	IntersectionEnterTime 	14.75
scalar IntersectionExampleScenario.node[13].appl 	IntersectionExitTime 	40.08318600303
scalar IntersectionExampleScenario.node[13].appl 	NumberOfCollisions 	0
scalar IntersectionExampleScenario.node[13].nic.phy80211p 	busyTime 	0
scalar IntersectionExampleScenario.node[13].nic.mac1609_4 	ReceivedUnicastPackets 	0
scalar IntersectionExampleScenario.node[13].nic.mac1609_4 	ReceivedBroadcasts 	0
scalar IntersectionExampleScenario.node[13].nic.mac1609_4 	SentPackets 	0
scalar IntersectionExampleScenario.node[13].nic.mac1609_4 	SNIRLostPackets 	0
scalar IntersectionExampleScenario.node[13].nic.mac1609_4 	RXTXLostPackets 	0
scalar IntersectionExampleScenario.node[13].nic.mac1609_4 	TotalLostPackets 	0
scalar IntersectionExampleScenario.node[13].nic.mac1609_4 	DroppedPacketsInMac 	0
scalar IntersectionExampleScenario.node[13].nic.mac1609_4 	TooLittleTime 	0
scalar IntersectionExampleScenario.node[13].nic.mac1609_4 	TimesIntoBackoff 	0
scalar IntersectionExampleScenario.node[13].nic.mac1609_4 	SlotsBackoff 	0
scalar IntersectionExampleScenario.node[13].nic.mac1609_4 	NumInternalContention 	0
scalar IntersectionExampleScenario.node[13].nic.mac1609_4 	totalBusyTime 	0
scalar IntersectionExampleScenario.node[13].veinsmobility 	startTime 	14.75
scalar IntersectionExampleScenario.node[13].veinsmobility 	totalTime 	41.5
scalar IntersectionExampleScenario.node[13].veinsmobility 	stopTime 	56.5
scalar IntersectionExampleScenario.node[13].veinsmobility 	minSpeed 	5.6500000953674
scalar IntersectionExampleScenario.node[13].veinsmobility 	maxSpeed 	15.375
scalar IntersectionExampleScenario.node[13].veinsmobility 	totalDistance 	565.56746324199
scalar IntersectionExampleScenario.node[13].veinsmobility 	totalCO2Emission 	131.60117775446
scalar IntersectionExampleScenario.node[4].appl 	VehicleRemoved 	0
scalar IntersectionExampleScenario.node[4].appl 	ArrivedAtDest 	1
scalar IntersectionExampleScenario.node[4].appl 	IntersectionEnterTime 	6.25
scalar IntersectionExampleScenario.node[4].appl 	IntersectionExitTime 	49.269739038835
scalar IntersectionExampleScenario.node[4].appl 	NumberOfCollisions 	0
scalar IntersectionExampleScenario.node[4].nic.phy80211p 	busyTime 	0
scalar IntersectionExampleScenario.node[4].nic.mac1609_4 	ReceivedUnicastPackets 	0
scalar IntersectionExampleScenario.node[4].nic.mac1609_4 	ReceivedBroadcasts 	0
scalar IntersectionExampleScenario.node[4].nic.mac1609_4 	SentPackets 	0
scalar IntersectionExampleScenario.node[4].nic.mac1609_4 	SNIRLostPackets 	0
scalar IntersectionExampleScenario.node[4].nic.mac1609_4 	RXTXLostPackets 	0
scalar IntersectionExampleScenario.node[4].nic.mac1609_4 	TotalLostPackets 	0
scalar IntersectionExampleScenario.node[4].nic.mac1609_4 	DroppedPacketsInMac 	0
scalar IntersectionExampleScenario.node[4].nic.mac1609_4 	TooLittleTime 	0
scalar IntersectionExampleScenario.node[4].nic.mac1609_4 	TimesIntoBackoff 	0
scalar IntersectionExampleScenario.node[4].nic.mac1609_4 	SlotsBackoff 	0
scalar IntersectionExampleScenario.node[4].nic.mac1609_4 	NumInternalContention 	0
scalar IntersectionExampleScenario.node[4].nic.mac1609_4 	totalBusyTime 	0
scalar IntersectionExampleScenario.node[4].veinsmobility 	startTime 	6.25
scalar IntersectionExampleScenario.node[4].veinsmobility 	totalTime 	59.25
scalar IntersectionExampleScenario.node[4].veinsmobility 	stopTime 	65.75
scalar IntersectionExampleScenario.node[4].veinsmobility 	minSpeed 	0
scalar IntersectionExampleScenario.node[4].veinsmobility 	maxSpeed 	15.375
scalar IntersectionExampleScenario.node[4].veinsmobility 	totalDistance 	548.74363054385
scalar IntersectionExampleScenario.node[4].veinsmobility 	totalCO2Emission 	148.66027183564
scalar IntersectionExampleScenario.node[9].appl 	VehicleRemoved 	0
scalar IntersectionExampleScenario.node[9].appl 	ArrivedAtDest 	1
scalar IntersectionExampleScenario.node[9].appl 	IntersectionEnterTime 	12
scalar IntersectionExampleScenario.node[9].appl 	IntersectionExitTime 	50.099554468878
scalar IntersectionExampleScenario.node[9].appl 	NumberOfCollisions 	0
scalar IntersectionExampleScenario.node[9].nic.phy80211p 	busyTime 	0
scalar IntersectionExampleScenario.node[9].nic.mac1609_4 	ReceivedUnicastPackets 	0
scalar IntersectionExampleScenario.node[9].nic.mac1609_4 	ReceivedBroadcasts 	0
scalar IntersectionExampleScenario.node[9].nic.mac1609_4 	SentPackets 	0
scalar IntersectionExampleScenario.node[9].nic.mac1609_4 	SNIRLostPackets 	0
scalar IntersectionExampleScenario.node[9].nic.mac1609_4 	RXTXLostPackets 	0
scalar IntersectionExampleScenario.node[9].nic.mac1609_4 	TotalLostPackets 	0
scalar IntersectionExampleScenario.node[9].nic.mac1609_4 	DroppedPacketsInMac 	0
scalar IntersectionExampleScenario.node[9].nic.mac1609_4 	TooLittleTime 	0
scalar IntersectionExampleScenario.node[9].nic.mac1609_4 	TimesIntoBackoff 	0
scalar IntersectionExampleScenario.node[9].nic.mac1609_4 	SlotsBackoff 	0
scalar IntersectionExampleScenario.node[9].nic.mac1609_4 	NumInternalContention 	0
scalar IntersectionExampleScenario.node[9].nic.mac1609_4 	totalBusyTime 	0
scalar IntersectionExampleScenario.node[9].veinsmobility 	startTime 	12
scalar IntersectionExampleScenario.node[9].veinsmobility 	totalTime 	55.25
scalar IntersectionExampleScenario.node[9].veinsmobility 	stopTime 	67.5
scalar IntersectionExampleScenario.node[9].veinsmobility 	minSpeed 	0
scalar IntersectionExampleScenario.node[9].veinsmobility 	maxSpeed 	15.25
scalar IntersectionExampleScenario.node[9].veinsmobility 	totalDistance 	547.09431145717
scalar IntersectionExampleScenario.node[9].veinsmobility 	totalCO2Emission 	141.95965948815
scalar IntersectionExampleScenario.node[11].appl 	VehicleRemoved 	0
scalar IntersectionExampleScenario.node[11].appl 	ArrivedAtDest 	1
scalar IntersectionExampleScenario.node[11].appl 	IntersectionEnterTime 	12.75
scalar IntersectionExampleScenario.node[11].appl 	IntersectionExitTime 	52.584691348893
scalar IntersectionExampleScenario.node[11].appl 	NumberOfCollisions 	0
scalar IntersectionExampleScenario.node[11].nic.phy80211p 	busyTime 	0
scalar IntersectionExampleScenario.node[11].nic.mac1609_4 	ReceivedUnicastPackets 	0
scalar IntersectionExampleScenario.node[11].nic.mac1609_4 	ReceivedBroadcasts 	0
scalar IntersectionExampleScenario.node[11].nic.mac1609_4 	SentPackets 	0
scalar IntersectionExampleScenario.node[11].nic.mac1609_4 	SNIRLostPackets 	0
scalar IntersectionExampleScenario.node[11].nic.mac1609_4 	RXTXLostPackets 	0
scalar IntersectionExampleScenario.node[11].nic.mac1609_4 	TotalLostPackets 	0
scalar IntersectionExampleScenario.node[11].nic.mac1609_4 	DroppedPacketsInMac 	0
scalar IntersectionExampleScenario.node[11].nic.mac1609_4 	TooLittleTime 	0
scalar IntersectionExampleScenario.node[11].nic.mac1609_4 	TimesIntoBackoff 	0
scalar IntersectionExampleScenario.node[11].nic.mac1609_4 	SlotsBackoff 	0
scalar IntersectionExampleScenario.node[11].nic.mac1609_4 	NumInternalContention 	0
scalar IntersectionExampleScenario.node[11].nic.mac1609_4 	totalBusyTime 	0
scalar IntersectionExampleScenario.node[11].veinsmobility 	startTime 	12.75
scalar IntersectionExampleScenario.node[11].veinsmobility 	totalTime 	56.75
scalar IntersectionExampleScenario.node[11].veinsmobility 	stopTime 	69.75
scalar IntersectionExampleScenario.node[11].veinsmobility 	minSpeed 	0
scalar IntersectionExampleScenario.node[11].veinsmobility 	maxSpeed 	14.875
scalar IntersectionExampleScenario.node[11].veinsmobility 	totalDistance 	576.46398925781
scalar IntersectionExampleScenario.node[11].veinsmobility 	totalCO2Emission 	141.85806809425
scalar IntersectionExampleScenario.node[15].appl 	VehicleRemoved 	0
scalar IntersectionExampleScenario.node[15].appl 	ArrivedAtDest 	1
scalar IntersectionExampleScenario.node[15].appl 	IntersectionEnterTime 	16.75
scalar IntersectionExampleScenario.node[15].appl 	IntersectionExitTime 	54.840070691775
scalar IntersectionExampleScenario.node[15].appl 	NumberOfCollisions 	0
scalar IntersectionExampleScenario.node[15].nic.phy80211p 	busyTime 	0
scalar IntersectionExampleScenario.node[15].nic.mac1609_4 	ReceivedUnicastPackets 	0
scalar IntersectionExampleScenario.node[15].nic.mac1609_4 	ReceivedBroadcasts 	0
scalar IntersectionExampleScenario.node[15].nic.mac1609_4 	SentPackets 	0
scalar IntersectionExampleScenario.node[15].nic.mac1609_4 	SNIRLostPackets 	0
scalar IntersectionExampleScenario.node[15].nic.mac1609_4 	RXTXLostPackets 	0
scalar IntersectionExampleScenario.node[15].nic.mac1609_4 	TotalLostPackets 	0
scalar IntersectionExampleScenario.node[15].nic.mac1609_4 	DroppedPacketsInMac 	0
scalar IntersectionExampleScenario.node[15].nic.mac1609_4 	TooLittleTime 	0
scalar IntersectionExampleScenario.node[15].nic.mac1609_4 	TimesIntoBackoff 	0
scalar IntersectionExampleScenario.node[15].nic.mac1609_4 	SlotsBackoff 	0
scalar IntersectionExampleScenario.node[15].nic.mac1609_4 	NumInternalContention 	0
scalar IntersectionExampleScenario.node[15].nic.mac1609_4 	totalBusyTime 	0
scalar IntersectionExampleScenario.node[15].veinsmobility 	startTime 	16.75
scalar IntersectionExampleScenario.node[15].veinsmobility 	totalTime 	54
scalar IntersectionExampleScenario.node[15].veinsmobility 	stopTime 	71
scalar IntersectionExampleScenario.node[15].veinsmobility 	minSpeed 	1.8589586019516
scalar IntersectionExampleScenario.node[15].veinsmobility 	maxSpeed 	16.024211883545
scalar IntersectionExampleScenario.node[15].veinsmobility 	totalDistance 	561.46299311441
scalar IntersectionExampleScenario.node[15].veinsmobility 	totalCO2Emission 	154.86283821231
scalar IntersectionExampleScenario.node[6].appl 	VehicleRemoved 	0
scalar IntersectionExampleScenario.node[6].appl 	ArrivedAtDest 	1
scalar IntersectionExampleScenario.node[6].appl 	IntersectionEnterTime 	10.75
scalar IntersectionExampleScenario.node[6].appl 	IntersectionExitTime 	62.824942924286
scalar IntersectionExampleScenario.node[6].appl 	NumberOfCollisions 	0
scalar IntersectionExampleScenario.node[6].nic.phy80211p 	busyTime 	0
scalar IntersectionExampleScenario.node[6].nic.mac1609_4 	ReceivedUnicastPackets 	0
scalar IntersectionExampleScenario.node[6].nic.mac1609_4 	ReceivedBroadcasts 	0
scalar IntersectionExampleScenario.node[6].nic.mac1609_4 	SentPackets 	0
scalar IntersectionExampleScenario.node[6].nic.mac1609_4 	SNIRLostPackets 	0
scalar IntersectionExampleScenario.node[6].nic.mac1609_4 	RXTXLostPackets 	0
scalar IntersectionExampleScenario.node[6].nic.mac1609_4 	TotalLostPackets 	0
scalar IntersectionExampleScenario.node[6].nic.mac1609_4 	DroppedPacketsInMac 	0
scalar IntersectionExampleScenario.node[6].nic.mac1609_4 	TooLittleTime 	0
scalar IntersectionExampleScenario.node[6].nic.mac1609_4 	TimesIntoBackoff 	0
scalar IntersectionExampleScenario.node[6].nic.mac1609_4 	SlotsBackoff 	0
scalar IntersectionExampleScenario.node[6].nic.mac1609_4 	NumInternalContention 	0
scalar IntersectionExampleScenario.node[6].nic.mac1609_4 	totalBusyTime 	0
scalar IntersectionExampleScenario.node[6].veinsmobility 	startTime 	10.75
scalar IntersectionExampleScenario.node[6].veinsmobility 	totalTime 	68
scalar IntersectionExampleScenario.node[6].veinsmobility 	stopTime 	79
scalar IntersectionExampleScenario.node[6].veinsmobility 	minSpeed 	0
scalar IntersectionExampleScenario.node[6].veinsmobility 	maxSpeed 	16
scalar IntersectionExampleScenario.node[6].veinsmobility 	totalDistance 	551.38068514299
scalar IntersectionExampleScenario.node[6].veinsmobility 	totalCO2Emission 	162.20119951381
scalar IntersectionExampleScenario.node[5].appl 	VehicleRemoved 	0
scalar IntersectionExampleScenario.node[5].appl 	ArrivedAtDest 	1
scalar IntersectionExampleScenario.node[5].appl 	IntersectionEnterTime 	9
scalar IntersectionExampleScenario.node[5].appl 	IntersectionExitTime 	63.289849850145
scalar IntersectionExampleScenario.node[5].appl 	NumberOfCollisions 	0
scalar IntersectionExampleScenario.node[5].nic.phy80211p 	busyTime 	0
scalar IntersectionExampleScenario.node[5].nic.mac1609_4 	ReceivedUnicastPackets 	0
scalar IntersectionExampleScenario.node[5].nic.mac1609_4 	ReceivedBroadcasts 	0
scalar IntersectionExampleScenario.node[5].nic.mac1609_4 	SentPackets 	0
scalar IntersectionExampleScenario.node[5].nic.mac1609_4 	SNIRLostPackets 	0
scalar IntersectionExampleScenario.node[5].nic.mac1609_4 	RXTXLostPackets 	0
scalar IntersectionExampleScenario.node[5].nic.mac1609_4 	TotalLostPackets 	0
scalar IntersectionExampleScenario.node[5].nic.mac1609_4 	DroppedPacketsInMac 	0
scalar IntersectionExampleScenario.node[5].nic.mac1609_4 	TooLittleTime 	0
scalar IntersectionExampleScenario.node[5].nic.mac1609_4 	TimesIntoBackoff 	0
scalar IntersectionExampleScenario.node[5].nic.mac1609_4 	SlotsBackoff 	0
scalar IntersectionExampleScenario.node[5].nic.mac1609_4 	NumInternalContention 	0
scalar IntersectionExampleScenario.node[5].nic.mac1609_4 	totalBusyTime 	0
scalar IntersectionExampleScenario.node[5].veinsmobility 	startTime 	9
scalar IntersectionExampleScenario.node[5].veinsmobility 	totalTime 	70.5
scalar IntersectionExampleScenario.node[5].veinsmobility 	stopTime 	79.75
scalar IntersectionExampleScenario.node[5].veinsmobility 	minSpeed 	0
scalar IntersectionExampleScenario.node[5].veinsmobility 	maxSpeed 	15.375
scalar IntersectionExampleScenario.node[5].veinsmobility 	totalDistance 	570.7325668335
scalar IntersectionExampleScenario.node[5].veinsmobility 	totalCO2Emission 	162.44749288285
scalar IntersectionExampleScenario.node[7].appl 	VehicleRemoved 	0
scalar IntersectionExampleScenario.node[7].appl 	ArrivedAtDest 	1
scalar IntersectionExampleScenario.node[7].appl 	IntersectionEnterTime 	11.25
scalar IntersectionExampleScenario.node[7].appl 	IntersectionExitTime 	64.105997375184
scalar IntersectionExampleScenario.node[7].appl 	NumberOfCollisions 	0
scalar IntersectionExampleScenario.node[7].nic.phy80211p 	busyTime 	0
scalar IntersectionExampleScenario.node[7].nic.mac1609_4 	ReceivedUnicastPackets 	0
scalar IntersectionExampleScenario.node[7].nic.mac1609_4 	ReceivedBroadcasts 	0
scalar IntersectionExampleScenario.node[7].nic.mac1609_4 	SentPackets 	0
scalar IntersectionExampleScenario.node[7].nic.mac1609_4 	SNIRLostPackets 	0
scalar IntersectionExampleScenario.node[7].nic.mac1609_4 	RXTXLostPackets 	0
scalar IntersectionExampleScenario.node[7].nic.mac1609_4 	TotalLostPackets 	0
scalar IntersectionExampleScenario.node[7].nic.mac1609_4 	DroppedPacketsInMac 	0
scalar IntersectionExampleScenario.node[7].nic.mac1609_4 	TooLittleTime 	0
scalar IntersectionExampleScenario.node[7].nic.mac1609_4 	TimesIntoBackoff 	0
scalar IntersectionExampleScenario.node[7].nic.mac1609_4 	SlotsBackoff 	0
scalar IntersectionExampleScenario.node[7].nic.mac1609_4 	NumInternalContention 	0
scalar IntersectionExampleScenario.node[7].nic.mac1609_4 	totalBusyTime 	0
scalar IntersectionExampleScenario.node[7].veinsmobility 	startTime 	11.25
scalar IntersectionExampleScenario.node[7].veinsmobility 	totalTime 	68.75
scalar IntersectionExampleScenario.node[7].veinsmobility 	stopTime 	80.25
scalar IntersectionExampleScenario.node[7].veinsmobility 	minSpeed 	0
scalar IntersectionExampleScenario.node[7].veinsmobility 	maxSpeed 	16.5
scalar IntersectionExampleScenario.node[7].veinsmobility 	totalDistance 	566.66035466654
scalar IntersectionExampleScenario.node[7].veinsmobility 	totalCO2Emission 	168.7879162705
scalar IntersectionExampleScenario.node[8].appl 	VehicleRemoved 	0
scalar IntersectionExampleScenario.node[8].appl 	ArrivedAtDest 	1
scalar IntersectionExampleScenario.node[8].appl 	IntersectionEnterTime 	12
scalar IntersectionExampleScenario.node[8].appl 	IntersectionExitTime 	65.618637799751
scalar IntersectionExampleScenario.node[8].appl 	NumberOfCollisions 	0
scalar IntersectionExampleScenario.node[8].nic.phy80211p 	busyTime 	0
scalar IntersectionExampleScenario.node[8].nic.mac1609_4 	ReceivedUnicastPackets 	0
scalar IntersectionExampleScenario.node[8].nic.mac1609_4 	ReceivedBroadcasts 	0
scalar IntersectionExampleScenario.node[8].nic.mac1609_4 	SentPackets 	0
scalar IntersectionExampleScenario.node[8].nic.mac1609_4 	SNIRLostPackets 	0
scalar IntersectionExampleScenario.node[8].nic.mac1609_4 	RXTXLostPackets 	0
scalar IntersectionExampleScenario.node[8].nic.mac1609_4 	TotalLostPackets 	0
scalar IntersectionExampleScenario.node[8].nic.mac1609_4 	DroppedPacketsInMac 	0
scalar IntersectionExampleScenario.node[8].nic.mac1609_4 	TooLittleTime 	0
scalar IntersectionExampleScenario.node[8].nic.mac1609_4 	TimesIntoBackoff 	0
scalar IntersectionExampleScenario.node[8].nic.mac1609_4 	SlotsBackoff 	0
scalar IntersectionExampleScenario.node[8].nic.mac1609_4 	NumInternalContention 	0
scalar IntersectionExampleScenario.node[8].nic.mac1609_4 	totalBusyTime 	0
scalar IntersectionExampleScenario.node[8].veinsmobility 	startTime 	12
scalar IntersectionExampleScenario.node[8].veinsmobility 	totalTime 	69
scalar IntersectionExampleScenario.node[8].veinsmobility 	stopTime 	81.25
scalar IntersectionExampleScenario.node[8].veinsmobility 	minSpeed 	-3.2751402854919
scalar IntersectionExampleScenario.node[8].veinsmobility 	maxSpeed 	15.632349967957
scalar IntersectionExampleScenario.node[8].veinsmobility 	totalDistance 	573.87120056152
scalar IntersectionExampleScenario.node[8].veinsmobility 	totalCO2Emission 	170.74708047841
scalar IntersectionExampleScenario.node[12].appl 	VehicleRemoved 	0
scalar IntersectionExampleScenario.node[12].appl 	ArrivedAtDest 	1
scalar IntersectionExampleScenario.node[12].appl 	IntersectionEnterTime 	13
scalar IntersectionExampleScenario.node[12].appl 	IntersectionExitTime 	66.256335048907
scalar IntersectionExampleScenario.node[12].appl 	NumberOfCollisions 	0
scalar IntersectionExampleScenario.node[12].nic.phy80211p 	busyTime 	0
scalar IntersectionExampleScenario.node[12].nic.mac1609_4 	ReceivedUnicastPackets 	0
scalar IntersectionExampleScenario.node[12].nic.mac1609_4 	ReceivedBroadcasts 	0
scalar IntersectionExampleScenario.node[12].nic.mac1609_4 	SentPackets 	0
scalar IntersectionExampleScenario.node[12].nic.mac1609_4 	SNIRLostPackets 	0
scalar IntersectionExampleScenario.node[12].nic.mac1609_4 	RXTXLostPackets 	0
scalar IntersectionExampleScenario.node[12].nic.mac1609_4 	TotalLostPackets 	0
scalar IntersectionExampleScenario.node[12].nic.mac1609_4 	DroppedPacketsInMac 	0
scalar IntersectionExampleScenario.node[12].nic.mac1609_4 	TooLittleTime 	0
scalar IntersectionExampleScenario.node[12].nic.mac1609_4 	TimesIntoBackoff 	0
scalar IntersectionExampleScenario.node[12].nic.mac1609_4 	SlotsBackoff 	0
scalar IntersectionExampleScenario.node[12].nic.mac1609_4 	NumInternalContention 	0
scalar IntersectionExampleScenario.node[12].nic.mac1609_4 	totalBusyTime 	0
scalar IntersectionExampleScenario.node[12].veinsmobility 	startTime 	13
scalar IntersectionExampleScenario.node[12].veinsmobility 	totalTime 	69.25
scalar IntersectionExampleScenario.node[12].veinsmobility 	stopTime 	82.5
scalar IntersectionExampleScenario.node[12].veinsmobility 	minSpeed 	0
scalar IntersectionExampleScenario.node[12].veinsmobility 	maxSpeed 	16.5
scalar IntersectionExampleScenario.node[12].veinsmobility 	totalDistance 	577.61381440215
scalar IntersectionExampleScenario.node[12].veinsmobility 	totalCO2Emission 	171.48603874568
scalar IntersectionExampleScenario.node[14].appl 	VehicleRemoved 	0
scalar IntersectionExampleScenario.node[14].appl 	ArrivedAtDest 	1
scalar IntersectionExampleScenario.node[14].appl 	IntersectionEnterTime 	15
scalar IntersectionExampleScenario.node[14].appl 	IntersectionExitTime 	67.276850448048
scalar IntersectionExampleScenario.node[14].appl 	NumberOfCollisions 	0
scalar IntersectionExampleScenario.node[14].nic.phy80211p 	busyTime 	0
scalar IntersectionExampleScenario.node[14].nic.mac1609_4 	ReceivedUnicastPackets 	0
scalar IntersectionExampleScenario.node[14].nic.mac1609_4 	ReceivedBroadcasts 	0
scalar IntersectionExampleScenario.node[14].nic.mac1609_4 	SentPackets 	0
scalar IntersectionExampleScenario.node[14].nic.mac1609_4 	SNIRLostPackets 	0
scalar IntersectionExampleScenario.node[14].nic.mac1609_4 	RXTXLostPackets 	0
scalar IntersectionExampleScenario.node[14].nic.mac1609_4 	TotalLostPackets 	0
scalar IntersectionExampleScenario.node[14].nic.mac1609_4 	DroppedPacketsInMac 	0
scalar IntersectionExampleScenario.node[14].nic.mac1609_4 	TooLittleTime 	0
scalar IntersectionExampleScenario.node[14].nic.mac1609_4 	TimesIntoBackoff 	0
scalar IntersectionExampleScenario.node[14].nic.mac1609_4 	SlotsBackoff 	0
scalar IntersectionExampleScenario.node[14].nic.mac1609_4 	NumInternalContention 	0
scalar IntersectionExampleScenario.node[14].nic.mac1609_4 	totalBusyTime 	0
scalar IntersectionExampleScenario.node[14].veinsmobility 	startTime 	15
scalar IntersectionExampleScenario.node[14].veinsmobility 	totalTime 	68
scalar IntersectionExampleScenario.node[14].veinsmobility 	stopTime 	83.25
scalar IntersectionExampleScenario.node[14].veinsmobility 	minSpeed 	0
scalar IntersectionExampleScenario.node[14].veinsmobility 	maxSpeed 	15.916213989258
scalar IntersectionExampleScenario.node[14].veinsmobility 	totalDistance 	577.10967254639
scalar IntersectionExampleScenario.node[14].veinsmobility 	totalCO2Emission 	165.03898193265
scalar IntersectionExampleScenario.node[16].appl 	VehicleRemoved 	0
scalar IntersectionExampleScenario.node[16].appl 	ArrivedAtDest 	1
scalar IntersectionExampleScenario.node[16].appl 	IntersectionEnterTime 	17.25
scalar IntersectionExampleScenario.node[16].appl 	IntersectionExitTime 	68.581347574131
scalar IntersectionExampleScenario.node[16].appl 	NumberOfCollisions 	0
scalar IntersectionExampleScenario.node[16].nic.phy80211p 	busyTime 	0
scalar IntersectionExampleScenario.node[16].nic.mac1609_4 	ReceivedUnicastPackets 	0
scalar IntersectionExampleScenario.node[16].nic.mac1609_4 	ReceivedBroadcasts 	0
scalar IntersectionExampleScenario.node[16].nic.mac1609_4 	SentPackets 	0
scalar IntersectionExampleScenario.node[16].nic.mac1609_4 	SNIRLostPackets 	0
scalar IntersectionExampleScenario.node[16].nic.mac1609_4 	RXTXLostPackets 	0
scalar IntersectionExampleScenario.node[16].nic.mac1609_4 	TotalLostPackets 	0
scalar IntersectionExampleScenario.node[16].nic.mac1609_4 	DroppedPacketsInMac 	0
scalar IntersectionExampleScenario.node[16].nic.mac1609_4 	TooLittleTime 	0
scalar IntersectionExampleScenario.node[16].nic.mac1609_4 	TimesIntoBackoff 	0
scalar IntersectionExampleScenario.node[16].nic.mac1609_4 	SlotsBackoff 	0
scalar IntersectionExampleScenario.node[16].nic.mac1609_4 	NumInternalContention 	0
scalar IntersectionExampleScenario.node[16].nic.mac1609_4 	totalBusyTime 	0
scalar IntersectionExampleScenario.node[16].veinsmobility 	startTime 	17.25
scalar IntersectionExampleScenario.node[16].veinsmobility 	totalTime 	68
scalar IntersectionExampleScenario.node[16].veinsmobility 	stopTime 	85.5
scalar IntersectionExampleScenario.node[16].veinsmobility 	minSpeed 	0
scalar IntersectionExampleScenario.node[16].veinsmobility 	maxSpeed 	14.875
scalar IntersectionExampleScenario.node[16].veinsmobility 	totalDistance 	572.48599243164
scalar IntersectionExampleScenario.node[16].veinsmobility 	totalCO2Emission 	155.4786550655
scalar IntersectionExampleScenario.node[18].appl 	VehicleRemoved 	0
scalar IntersectionExampleScenario.node[18].appl 	ArrivedAtDest 	1
scalar IntersectionExampleScenario.node[18].appl 	IntersectionEnterTime 	27
scalar IntersectionExampleScenario.node[18].appl 	IntersectionExitTime 	70.371731277439
scalar IntersectionExampleScenario.node[18].appl 	NumberOfCollisions 	0
scalar IntersectionExampleScenario.node[18].nic.phy80211p 	busyTime 	0
scalar IntersectionExampleScenario.node[18].nic.mac1609_4 	ReceivedUnicastPackets 	0
scalar IntersectionExampleScenario.node[18].nic.mac1609_4 	ReceivedBroadcasts 	0
scalar IntersectionExampleScenario.node[18].nic.mac1609_4 	SentPackets 	0
scalar IntersectionExampleScenario.node[18].nic.mac1609_4 	SNIRLostPackets 	0
scalar IntersectionExampleScenario.node[18].nic.mac1609_4 	RXTXLostPackets 	0
scalar IntersectionExampleScenario.node[18].nic.mac1609_4 	TotalLostPackets 	0
scalar IntersectionExampleScenario.node[18].nic.mac1609_4 	DroppedPacketsInMac 	0
scalar IntersectionExampleScenario.node[18].nic.mac1609_4 	TooLittleTime 	0
scalar IntersectionExampleScenario.node[18].nic.mac1609_4 	TimesIntoBackoff 	0
scalar IntersectionExampleScenario.node[18].nic.mac1609_4 	SlotsBackoff 	0
scalar IntersectionExampleScenario.node[18].nic.mac1609_4 	NumInternalContention 	0
scalar IntersectionExampleScenario.node[18].nic.mac1609_4 	totalBusyTime 	0
scalar IntersectionExampleScenario.node[18].veinsmobility 	startTime 	27
scalar IntersectionExampleScenario.node[18].veinsmobility 	totalTime 	59.5
scalar IntersectionExampleScenario.node[18].veinsmobility 	stopTime 	86.75
scalar IntersectionExampleScenario.node[18].veinsmobility 	minSpeed 	0
scalar IntersectionExampleScenario.node[18].veinsmobility 	maxSpeed 	16.27499961853
scalar IntersectionExampleScenario.node[18].veinsmobility 	totalDistance 	553.26881408691
scalar IntersectionExampleScenario.node[18].veinsmobility 	totalCO2Emission 	151.29180266271
scalar IntersectionExampleScenario.node[22].appl 	VehicleRemoved 	0
scalar IntersectionExampleScenario.node[22].appl 	ArrivedAtDest 	1
scalar IntersectionExampleScenario.node[22].appl 	IntersectionEnterTime 	39.5
scalar IntersectionExampleScenario.node[22].appl 	IntersectionExitTime 	69.831007055356
scalar IntersectionExampleScenario.node[22].appl 	NumberOfCollisions 	0
scalar IntersectionExampleScenario.node[22].nic.phy80211p 	busyTime 	0
scalar IntersectionExampleScenario.node[22].nic.mac1609_4 	ReceivedUnicastPackets 	0
scalar IntersectionExampleScenario.node[22].nic.mac1609_4 	ReceivedBroadcasts 	0
scalar IntersectionExampleScenario.node[22].nic.mac1609_4 	SentPackets 	0
scalar IntersectionExampleScenario.node[22].nic.mac1609_4 	SNIRLostPackets 	0
scalar IntersectionExampleScenario.node[22].nic.mac1609_4 	RXTXLostPackets 	0
scalar IntersectionExampleScenario.node[22].nic.mac1609_4 	TotalLostPackets 	0
scalar IntersectionExampleScenario.node[22].nic.mac1609_4 	DroppedPacketsInMac 	0
scalar IntersectionExampleScenario.node[22].nic.mac1609_4 	TooLittleTime 	0
scalar IntersectionExampleScenario.node[22].nic.mac1609_4 	TimesIntoBackoff 	0
scalar IntersectionExampleScenario.node[22].nic.mac1609_4 	SlotsBackoff 	0
scalar IntersectionExampleScenario.node[22].nic.mac1609_4 	NumInternalContention 	0
scalar IntersectionExampleScenario.node[22].nic.mac1609_4 	totalBusyTime 	0
scalar IntersectionExampleScenario.node[22].veinsmobility 	startTime 	39.5
scalar IntersectionExampleScenario.node[22].veinsmobility 	totalTime 	48.25
scalar IntersectionExampleScenario.node[22].veinsmobility 	stopTime 	88
scalar IntersectionExampleScenario.node[22].veinsmobility 	minSpeed 	4.2303290367126
scalar IntersectionExampleScenario.node[22].veinsmobility 	maxSpeed 	14.39999961853
scalar IntersectionExampleScenario.node[22].veinsmobility 	totalDistance 	546.12505830663
scalar IntersectionExampleScenario.node[22].veinsmobility 	totalCO2Emission 	132.52004730587
scalar IntersectionExampleScenario.node[21].appl 	VehicleRemoved 	0
scalar IntersectionExampleScenario.node[21].appl 	ArrivedAtDest 	1
scalar IntersectionExampleScenario.node[21].appl 	IntersectionEnterTime 	32.75
scalar IntersectionExampleScenario.node[21].appl 	IntersectionExitTime 	72.599234050809
scalar IntersectionExampleScenario.node[21].appl 	NumberOfCollisions 	0
scalar IntersectionExampleScenario.node[21].nic.phy80211p 	busyTime 	0
scalar IntersectionExampleScenario.node[21].nic.mac1609_4 	ReceivedUnicastPackets 	0
scalar IntersectionExampleScenario.node[21].nic.mac1609_4 	ReceivedBroadcasts 	0
scalar IntersectionExampleScenario.node[21].nic.mac1609_4 	SentPackets 	0
scalar IntersectionExampleScenario.node[21].nic.mac1609_4 	SNIRLostPackets 	0
scalar IntersectionExampleScenario.node[21].nic.mac1609_4 	RXTXLostPackets 	0
scalar IntersectionExampleScenario.node[21].nic.mac1609_4 	TotalLostPackets 	0
scalar IntersectionExampleScenario.node[21].nic.mac1609_4 	DroppedPacketsInMac 	0
scalar IntersectionExampleScenario.node[21].nic.mac1609_4 	TooLittleTime 	0
scalar IntersectionExampleScenario.node[21].nic.mac1609_4 	TimesIntoBackoff 	0
scalar IntersectionExampleScenario.node[21].nic.mac1609_4 	SlotsBackoff 	0
scalar IntersectionExampleScenario.node[21].nic.mac1609_4 	NumInternalContention 	0
scalar IntersectionExampleScenario.node[21].nic.mac1609_4 	totalBusyTime 	0
scalar IntersectionExampleScenario.node[21].veinsmobility 	startTime 	32.75
scalar IntersectionExampleScenario.node[21].veinsmobility 	totalTime 	56.5
scalar IntersectionExampleScenario.node[21].veinsmobility 	stopTime 	89.5
scalar IntersectionExampleScenario.node[21].veinsmobility 	minSpeed 	0
scalar IntersectionExampleScenario.node[21].veinsmobility 	maxSpeed 	15.169687271118
scalar IntersectionExampleScenario.node[21].veinsmobility 	totalDistance 	521.79512109582
scalar IntersectionExampleScenario.node[21].veinsmobility 	totalCO2Emission 	143.95727580332
scalar IntersectionExampleScenario.node[19].appl 	VehicleRemoved 	0
scalar IntersectionExampleScenario.node[19].appl 	ArrivedAtDest 	1
scalar IntersectionExampleScenario.node[19].appl 	IntersectionEnterTime 	29.75
scalar IntersectionExampleScenario.node[19].appl 	IntersectionExitTime 	74.517443873134
scalar IntersectionExampleScenario.node[19].appl 	NumberOfCollisions 	0
scalar IntersectionExampleScenario.node[19].nic.phy80211p 	busyTime 	0
scalar IntersectionExampleScenario.node[19].nic.mac1609_4 	ReceivedUnicastPackets 	0
scalar IntersectionExampleScenario.node[19].nic.mac1609_4 	ReceivedBroadcasts 	0
scalar IntersectionExampleScenario.node[19].nic.mac1609_4 	SentPackets 	0
scalar IntersectionExampleScenario.node[19].nic.mac1609_4 	SNIRLostPackets 	0
scalar IntersectionExampleScenario.node[19].nic.mac1609_4 	RXTXLostPackets 	0
scalar IntersectionExampleScenario.node[19].nic.mac1609_4 	TotalLostPackets 	0
scalar IntersectionExampleScenario.node[19].nic.mac1609_4 	DroppedPacketsInMac 	0
scalar IntersectionExampleScenario.node[19].nic.mac1609_4 	TooLittleTime 	0
scalar IntersectionExampleScenario.node[19].nic.mac1609_4 	TimesIntoBackoff 	0
scalar IntersectionExampleScenario.node[19].nic.mac1609_4 	SlotsBackoff 	0
scalar IntersectionExampleScenario.node[19].nic.mac1609_4 	NumInternalContention 	0
scalar IntersectionExampleScenario.node[19].nic.mac1609_4 	totalBusyTime 	0
scalar IntersectionExampleScenario.node[19].veinsmobility 	startTime 	29.75
scalar IntersectionExampleScenario.node[19].veinsmobility 	totalTime 	61.25
scalar IntersectionExampleScenario.node[19].veinsmobility 	stopTime 	91.25
scalar IntersectionExampleScenario.node[19].veinsmobility 	minSpeed 	0
scalar IntersectionExampleScenario.node[19].veinsmobility 	maxSpeed 	15.875
scalar IntersectionExampleScenario.node[19].veinsmobility 	totalDistance 	557.26494010764
scalar IntersectionExampleScenario.node[19].veinsmobility 	totalCO2Emission 	169.93337535793
scalar IntersectionExampleScenario.node[20].appl 	VehicleRemoved 	0
scalar IntersectionExampleScenario.node[20].appl 	ArrivedAtDest 	1
scalar IntersectionExampleScenario.node[20].appl 	IntersectionEnterTime 	32.25
scalar IntersectionExampleScenario.node[20].appl 	IntersectionExitTime 	76.59249393965
scalar IntersectionExampleScenario.node[20].appl 	NumberOfCollisions 	0
scalar IntersectionExampleScenario.node[20].nic.phy80211p 	busyTime 	0
scalar IntersectionExampleScenario.node[20].nic.mac1609_4 	ReceivedUnicastPackets 	0
scalar IntersectionExampleScenario.node[20].nic.mac1609_4 	ReceivedBroadcasts 	0
scalar IntersectionExampleScenario.node[20].nic.mac1609_4 	SentPackets 	0
scalar IntersectionExampleScenario.node[20].nic.mac1609_4 	SNIRLostPackets 	0
scalar IntersectionExampleScenario.node[20].nic.mac1609_4 	RXTXLostPackets 	0
scalar IntersectionExampleScenario.node[20].nic.mac1609_4 	TotalLostPackets 	0
scalar IntersectionExampleScenario.node[20].nic.mac1609_4 	DroppedPacketsInMac 	0
scalar IntersectionExampleScenario.node[20].nic.mac1609_4 	TooLittleTime 	0
scalar IntersectionExampleScenario.node[20].nic.mac1609_4 	TimesIntoBackoff 	0
scalar IntersectionExampleScenario.node[20].nic.mac1609_4 	SlotsBackoff 	0
scalar IntersectionExampleScenario.node[20].nic.mac1609_4 	NumInternalContention 	0
scalar IntersectionExampleScenario.node[20].nic.mac1609_4 	totalBusyTime 	0
scalar IntersectionExampleScenario.node[20].veinsmobility 	startTime 	32.25
scalar IntersectionExampleScenario.node[20].veinsmobility 	totalTime 	60.25
scalar IntersectionExampleScenario.node[20].veinsmobility 	stopTime 	92.75
scalar IntersectionExampleScenario.node[20].veinsmobility 	minSpeed 	0
scalar IntersectionExampleScenario.node[20].veinsmobility 	maxSpeed 	16.323350906372
scalar IntersectionExampleScenario.node[20].veinsmobility 	totalDistance 	568.55545257345
scalar IntersectionExampleScenario.node[20].veinsmobility 	totalCO2Emission 	166.04258151343
scalar IntersectionExampleScenario.node[27].appl 	VehicleRemoved 	0
scalar IntersectionExampleScenario.node[27].appl 	ArrivedAtDest 	1
scalar IntersectionExampleScenario.node[27].appl 	IntersectionEnterTime 	52.5
scalar IntersectionExampleScenario.node[27].appl 	IntersectionExitTime 	76.871746032353
scalar IntersectionExampleScenario.node[27].appl 	NumberOfCollisions 	0
scalar IntersectionExampleScenario.node[27].nic.phy80211p 	busyTime 	0
scalar IntersectionExampleScenario.node[27].nic.mac1609_4 	ReceivedUnicastPackets 	0
scalar IntersectionExampleScenario.node[27].nic.mac1609_4 	ReceivedBroadcasts 	0
scalar IntersectionExampleScenario.node[27].nic.mac1609_4 	SentPackets 	0
scalar IntersectionExampleScenario.node[27].nic.mac1609_4 	SNIRLostPackets 	0
scalar IntersectionExampleScenario.node[27].nic.mac1609_4 	RXTXLostPackets 	0
scalar IntersectionExampleScenario.node[27].nic.mac1609_4 	TotalLostPackets 	0
scalar IntersectionExampleScenario.node[27].nic.mac1609_4 	DroppedPacketsInMac 	0
scalar IntersectionExampleScenario.node[27].nic.mac1609_4 	TooLittleTime 	0
scalar IntersectionExampleScenario.node[27].nic.mac1609_4 	TimesIntoBackoff 	0
scalar IntersectionExampleScenario.node[27].nic.mac1609_4 	SlotsBackoff 	0
scalar IntersectionExampleScenario.node[27].nic.mac1609_4 	NumInternalContention 	0
scalar IntersectionExampleScenario.node[27].nic.mac1609_4 	totalBusyTime 	0
scalar IntersectionExampleScenario.node[27].veinsmobility 	startTime 	52.5
scalar IntersectionExampleScenario.node[27].veinsmobility 	totalTime 	41.75
scalar IntersectionExampleScenario.node[27].veinsmobility 	stopTime 	94.5
scalar IntersectionExampleScenario.node[27].veinsmobility 	minSpeed 	5.6500000953674
scalar IntersectionExampleScenario.node[27].veinsmobility 	maxSpeed 	15.02499961853
scalar IntersectionExampleScenario.node[27].veinsmobility 	totalDistance 	546.84205865695
scalar IntersectionExampleScenario.node[27].veinsmobility 	totalCO2Emission 	121.64031764277
scalar IntersectionExampleScenario.node[17].appl 	VehicleRemoved 	0
scalar IntersectionExampleScenario.node[17].appl 	ArrivedAtDest 	1
scalar IntersectionExampleScenario.node[17].appl 	IntersectionEnterTime 	27
scalar IntersectionExampleScenario.node[17].appl 	IntersectionExitTime 	79.53556001134
scalar IntersectionExampleScenario.node[17].appl 	NumberOfCollisions 	0
scalar IntersectionExampleScenario.node[17].nic.phy80211p 	busyTime 	0
scalar IntersectionExampleScenario.node[17].nic.mac1609_4 	ReceivedUnicastPackets 	0
scalar IntersectionExampleScenario.node[17].nic.mac1609_4 	ReceivedBroadcasts 	0
scalar IntersectionExampleScenario.node[17].nic.mac1609_4 	SentPackets 	0
scalar IntersectionExampleScenario.node[17].nic.mac1609_4 	SNIRLostPackets 	0
scalar IntersectionExampleScenario.node[17].nic.mac1609_4 	RXTXLostPackets 	0
scalar IntersectionExampleScenario.node[17].nic.mac1609_4 	TotalLostPackets 	0
scalar IntersectionExampleScenario.node[17].nic.mac1609_4 	DroppedPacketsInMac 	0
scalar IntersectionExampleScenario.node[17].nic.mac1609_4 	TooLittleTime 	0
scalar IntersectionExampleScenario.node[17].nic.mac1609_4 	TimesIntoBackoff 	0
scalar IntersectionExampleScenario.node[17].nic.mac1609_4 	SlotsBackoff 	0
scalar IntersectionExampleScenario.node[17].nic.mac1609_4 	NumInternalContention 	0
scalar IntersectionExampleScenario.node[17].nic.mac1609_4 	totalBusyTime 	0
scalar IntersectionExampleScenario.node[17].veinsmobility 	startTime 	27
scalar IntersectionExampleScenario.node[17].veinsmobility 	totalTime 	68.75
scalar IntersectionExampleScenario.node[17].veinsmobility 	stopTime 	96
scalar IntersectionExampleScenario.node[17].veinsmobility 	minSpeed 	0
scalar IntersectionExampleScenario.node[17].veinsmobility 	maxSpeed 	15.461743354797
scalar IntersectionExampleScenario.node[17].veinsmobility 	totalDistance 	554.33371734619
scalar IntersectionExampleScenario.node[17].veinsmobility 	totalCO2Emission 	158.71091543751
scalar IntersectionExampleScenario.node[26].appl 	VehicleRemoved 	0
scalar IntersectionExampleScenario.node[26].appl 	ArrivedAtDest 	1
scalar IntersectionExampleScenario.node[26].appl 	IntersectionEnterTime 	52
scalar IntersectionExampleScenario.node[26].appl 	IntersectionExitTime 	82.287622396281
scalar IntersectionExampleScenario.node[26].appl 	NumberOfCollisions 	0
scalar IntersectionExampleScenario.node[26].nic.phy80211p 	busyTime 	0
scalar IntersectionExampleScenario.node[26].nic.mac1609_4 	ReceivedUnicastPackets 	0
scalar IntersectionExampleScenario.node[26].nic.mac1609_4 	ReceivedBroadcasts 	0
scalar IntersectionExampleScenario.node[26].nic.mac1609_4 	SentPackets 	0
scalar IntersectionExampleScenario.node[26].nic.mac1609_4 	SNIRLostPackets 	0
scalar IntersectionExampleScenario.node[26].nic.mac1609_4 	RXTXLostPackets 	0
scalar IntersectionExampleScenario.node[26].nic.mac1609_4 	TotalLostPackets 	0
scalar IntersectionExampleScenario.node[26].nic.mac1609_4 	DroppedPacketsInMac 	0
scalar IntersectionExampleScenario.node[26].nic.mac1609_4 	TooLittleTime 	0
scalar IntersectionExampleScenario.node[26].nic.mac1609_4 	TimesIntoBackoff 	0
scalar IntersectionExampleScenario.node[26].nic.mac1609_4 	SlotsBackoff 	0
scalar IntersectionExampleScenario.node[26].nic.mac1609_4 	NumInternalContention 	0
scalar IntersectionExampleScenario.node[26].nic.mac1609_4 	totalBusyTime 	0
scalar IntersectionExampleScenario.node[26].veinsmobility 	startTime 	52
scalar IntersectionExampleScenario.node[26].veinsmobility 	totalTime 	45.5
scalar IntersectionExampleScenario.node[26].veinsmobility 	stopTime 	97.75
scalar IntersectionExampleScenario.node[26].veinsmobility 	minSpeed 	3.6674859523773
scalar IntersectionExampleScenario.node[26].veinsmobility 	maxSpeed 	16.212661743164
scalar IntersectionExampleScenario.node[26].veinsmobility 	totalDistance 	554.24485015869
scalar IntersectionExampleScenario.node[26].veinsmobility 	totalCO2Emission 	141.08604441781
scalar IntersectionExampleScenario.node[25].appl 	VehicleRemoved 	0
scalar IntersectionExampleScenario.node[25].appl 	ArrivedAtDest 	1
scalar IntersectionExampleScenario.node[25].appl 	IntersectionEnterTime 	45.5
scalar IntersectionExampleScenario.node[25].appl 	IntersectionExitTime 	80.355617315508
scalar IntersectionExampleScenario.node[25].appl 	NumberOfCollisions 	0
scalar IntersectionExampleScenario.node[25].nic.phy80211p 	busyTime 	0
scalar IntersectionExampleScenario.node[25].nic.mac1609_4 	ReceivedUnicastPackets 	0
scalar IntersectionExampleScenario.node[25].nic.mac1609_4 	ReceivedBroadcasts 	0
scalar IntersectionExampleScenario.node[25].nic.mac1609_4 	SentPackets 	0
scalar IntersectionExampleScenario.node[25].nic.mac1609_4 	SNIRLostPackets 	0
scalar IntersectionExampleScenario.node[25].nic.mac1609_4 	RXTXLostPackets 	0
scalar IntersectionExampleScenario.node[25].nic.mac1609_4 	TotalLostPackets 	0
scalar IntersectionExampleScenario.node[25].nic.mac1609_4 	DroppedPacketsInMac 	0
scalar IntersectionExampleScenario.node[25].nic.mac1609_4 	TooLittleTime 	0
scalar IntersectionExampleScenario.node[25].nic.mac1609_4 	TimesIntoBackoff 	0
scalar IntersectionExampleScenario.node[25].nic.mac1609_4 	SlotsBackoff 	0
scalar IntersectionExampleScenario.node[25].nic.mac1609_4 	NumInternalContention 	0
scalar IntersectionExampleScenario.node[25].nic.mac1609_4 	totalBusyTime 	0
scalar IntersectionExampleScenario.node[25].veinsmobility 	startTime 	45.5
scalar IntersectionExampleScenario.node[25].veinsmobility 	totalTime 	52
scalar IntersectionExampleScenario.node[25].veinsmobility 	stopTime 	97.75
scalar IntersectionExampleScenario.node[25].veinsmobility 	minSpeed 	0
scalar IntersectionExampleScenario.node[25].veinsmobility 	maxSpeed 	15.02499961853
scalar IntersectionExampleScenario.node[25].veinsmobility 	totalDistance 	542.94250031482
scalar IntersectionExampleScenario.node[25].veinsmobility 	totalCO2Emission 	135.1516270051
scalar IntersectionExampleScenario.node[28].appl 	VehicleRemoved 	0
scalar IntersectionExampleScenario.node[28].appl 	ArrivedAtDest 	1
scalar IntersectionExampleScenario.node[28].appl 	IntersectionEnterTime 	55.5
scalar IntersectionExampleScenario.node[28].appl 	IntersectionExitTime 	84.828374727047
scalar IntersectionExampleScenario.node[28].appl 	NumberOfCollisions 	0
scalar IntersectionExampleScenario.node[28].nic.phy80211p 	busyTime 	0
scalar IntersectionExampleScenario.node[28].nic.mac1609_4 	ReceivedUnicastPackets 	0
scalar IntersectionExampleScenario.node[28].nic.mac1609_4 	ReceivedBroadcasts 	0
scalar IntersectionExampleScenario.node[28].nic.mac1609_4 	SentPackets 	0
scalar IntersectionExampleScenario.node[28].nic.mac1609_4 	SNIRLostPackets 	0
scalar IntersectionExampleScenario.node[28].nic.mac1609_4 	RXTXLostPackets 	0
scalar IntersectionExampleScenario.node[28].nic.mac1609_4 	TotalLostPackets 	0
scalar IntersectionExampleScenario.node[28].nic.mac1609_4 	DroppedPacketsInMac 	0
scalar IntersectionExampleScenario.node[28].nic.mac1609_4 	TooLittleTime 	0
scalar IntersectionExampleScenario.node[28].nic.mac1609_4 	TimesIntoBackoff 	0
scalar IntersectionExampleScenario.node[28].nic.mac1609_4 	SlotsBackoff 	0
scalar IntersectionExampleScenario.node[28].nic.mac1609_4 	NumInternalContention 	0
scalar IntersectionExampleScenario.node[28].nic.mac1609_4 	totalBusyTime 	0
scalar IntersectionExampleScenario.node[28].veinsmobility 	startTime 	55.5
scalar IntersectionExampleScenario.node[28].veinsmobility 	totalTime 	46
scalar IntersectionExampleScenario.node[28].veinsmobility 	stopTime 	101.75
scalar IntersectionExampleScenario.node[28].veinsmobility 	minSpeed 	3.9416792392731
scalar IntersectionExampleScenario.node[28].veinsmobility 	maxSpeed 	15.64999961853
scalar IntersectionExampleScenario.node[28].veinsmobility 	totalDistance 	554.62028978161
scalar IntersectionExampleScenario.node[28].veinsmobility 	totalCO2Emission 	143.85086910646
scalar IntersectionExampleScenario.node[31].appl 	VehicleRemoved 	0
scalar IntersectionExampleScenario.node[31].appl 	ArrivedAtDest 	1
scalar IntersectionExampleScenario.node[31].appl 	IntersectionEnterTime 	67.25
scalar IntersectionExampleScenario.node[31].appl 	IntersectionExitTime 	90.31961725041
scalar IntersectionExampleScenario.node[31].appl 	NumberOfCollisions 	0
scalar IntersectionExampleScenario.node[31].nic.phy80211p 	busyTime 	0
scalar IntersectionExampleScenario.node[31].nic.mac1609_4 	ReceivedUnicastPackets 	0
scalar IntersectionExampleScenario.node[31].nic.mac1609_4 	ReceivedBroadcasts 	0
scalar IntersectionExampleScenario.node[31].nic.mac1609_4 	SentPackets 	0
scalar IntersectionExampleScenario.node[31].nic.mac1609_4 	SNIRLostPackets 	0
scalar IntersectionExampleScenario.node[31].nic.mac1609_4 	RXTXLostPackets 	0
scalar IntersectionExampleScenario.node[31].nic.mac1609_4 	TotalLostPackets 	0
scalar IntersectionExampleScenario.node[31].nic.mac1609_4 	DroppedPacketsInMac 	0
scalar IntersectionExampleScenario.node[31].nic.mac1609_4 	TooLittleTime 	0
scalar IntersectionExampleScenario.node[31].nic.mac1609_4 	TimesIntoBackoff 	0
scalar IntersectionExampleScenario.node[31].nic.mac1609_4 	SlotsBackoff 	0
scalar IntersectionExampleScenario.node[31].nic.mac1609_4 	NumInternalContention 	0
scalar IntersectionExampleScenario.node[31].nic.mac1609_4 	totalBusyTime 	0
scalar IntersectionExampleScenario.node[31].veinsmobility 	startTime 	67.25
scalar IntersectionExampleScenario.node[31].veinsmobility 	totalTime 	39.25
scalar IntersectionExampleScenario.node[31].veinsmobility 	stopTime 	106.75
scalar IntersectionExampleScenario.node[31].veinsmobility 	minSpeed 	5.6500000953674
scalar IntersectionExampleScenario.node[31].veinsmobility 	maxSpeed 	16
scalar IntersectionExampleScenario.node[31].veinsmobility 	totalDistance 	552.76920279299
scalar IntersectionExampleScenario.node[31].veinsmobility 	totalCO2Emission 	124.55486095558
scalar IntersectionExampleScenario.node[23].appl 	VehicleRemoved 	0
scalar IntersectionExampleScenario.node[23].appl 	ArrivedAtDest 	1
scalar IntersectionExampleScenario.node[23].appl 	IntersectionEnterTime 	42
scalar IntersectionExampleScenario.node[23].appl 	IntersectionExitTime 	108.29176036178
scalar IntersectionExampleScenario.node[23].appl 	NumberOfCollisions 	0
scalar IntersectionExampleScenario.node[23].nic.phy80211p 	busyTime 	0
scalar IntersectionExampleScenario.node[23].nic.mac1609_4 	ReceivedUnicastPackets 	0
scalar IntersectionExampleScenario.node[23].nic.mac1609_4 	ReceivedBroadcasts 	0
scalar IntersectionExampleScenario.node[23].nic.mac1609_4 	SentPackets 	0
scalar IntersectionExampleScenario.node[23].nic.mac1609_4 	SNIRLostPackets 	0
scalar IntersectionExampleScenario.node[23].nic.mac1609_4 	RXTXLostPackets 	0
scalar IntersectionExampleScenario.node[23].nic.mac1609_4 	TotalLostPackets 	0
scalar IntersectionExampleScenario.node[23].nic.mac1609_4 	DroppedPacketsInMac 	0
scalar IntersectionExampleScenario.node[23].nic.mac1609_4 	TooLittleTime 	0
scalar IntersectionExampleScenario.node[23].nic.mac1609_4 	TimesIntoBackoff 	0
scalar IntersectionExampleScenario.node[23].nic.mac1609_4 	SlotsBackoff 	0
scalar IntersectionExampleScenario.node[23].nic.mac1609_4 	NumInternalContention 	0
scalar IntersectionExampleScenario.node[23].nic.mac1609_4 	totalBusyTime 	0
scalar IntersectionExampleScenario.node[23].veinsmobility 	startTime 	42
scalar IntersectionExampleScenario.node[23].veinsmobility 	totalTime 	83
scalar IntersectionExampleScenario.node[23].veinsmobility 	stopTime 	125.25
scalar IntersectionExampleScenario.node[23].veinsmobility 	minSpeed 	0
scalar IntersectionExampleScenario.node[23].veinsmobility 	maxSpeed 	15.02499961853
scalar IntersectionExampleScenario.node[23].veinsmobility 	totalDistance 	553.59945678711
scalar IntersectionExampleScenario.node[23].veinsmobility 	totalCO2Emission 	183.05944932281
scalar IntersectionExampleScenario.node[30].appl 	VehicleRemoved 	0
scalar IntersectionExampleScenario.node[30].appl 	ArrivedAtDest 	1
scalar IntersectionExampleScenario.node[30].appl 	IntersectionEnterTime 	65.5
scalar IntersectionExampleScenario.node[30].appl 	IntersectionExitTime 	108.27172185111
scalar IntersectionExampleScenario.node[30].appl 	NumberOfCollisions 	0
scalar IntersectionExampleScenario.node[30].nic.phy80211p 	busyTime 	0
scalar IntersectionExampleScenario.node[30].nic.mac1609_4 	ReceivedUnicastPackets 	0
scalar IntersectionExampleScenario.node[30].nic.mac1609_4 	ReceivedBroadcasts 	0
scalar IntersectionExampleScenario.node[30].nic.mac1609_4 	SentPackets 	0
scalar IntersectionExampleScenario.node[30].nic.mac1609_4 	SNIRLostPackets 	0
scalar IntersectionExampleScenario.node[30].nic.mac1609_4 	RXTXLostPackets 	0
scalar IntersectionExampleScenario.node[30].nic.mac1609_4 	TotalLostPackets 	0
scalar IntersectionExampleScenario.node[30].nic.mac1609_4 	DroppedPacketsInMac 	0
scalar IntersectionExampleScenario.node[30].nic.mac1609_4 	TooLittleTime 	0
scalar IntersectionExampleScenario.node[30].nic.mac1609_4 	TimesIntoBackoff 	0
scalar IntersectionExampleScenario.node[30].nic.mac1609_4 	SlotsBackoff 	0
scalar IntersectionExampleScenario.node[30].nic.mac1609_4 	NumInternalContention 	0
scalar IntersectionExampleScenario.node[30].nic.mac1609_4 	totalBusyTime 	0
scalar IntersectionExampleScenario.node[30].veinsmobility 	startTime 	65.5
scalar IntersectionExampleScenario.node[30].veinsmobility 	totalTime 	59.5
scalar IntersectionExampleScenario.node[30].veinsmobility 	stopTime 	125.25
scalar IntersectionExampleScenario.node[30].veinsmobility 	minSpeed 	0
scalar IntersectionExampleScenario.node[30].veinsmobility 	maxSpeed 	15.02499961853
scalar IntersectionExampleScenario.node[30].veinsmobility 	totalDistance 	553.59940338135
scalar IntersectionExampleScenario.node[30].veinsmobility 	totalCO2Emission 	146.40862262687
scalar IntersectionExampleScenario.node[24].appl 	VehicleRemoved 	0
scalar IntersectionExampleScenario.node[24].appl 	ArrivedAtDest 	1
scalar IntersectionExampleScenario.node[24].appl 	IntersectionEnterTime 	44
scalar IntersectionExampleScenario.node[24].appl 	IntersectionExitTime 	109.33233654365
scalar IntersectionExampleScenario.node[24].appl 	NumberOfCollisions 	0
scalar IntersectionExampleScenario.node[24].nic.phy80211p 	busyTime 	0
scalar IntersectionExampleScenario.node[24].nic.mac1609_4 	ReceivedUnicastPackets 	0
scalar IntersectionExampleScenario.node[24].nic.mac1609_4 	ReceivedBroadcasts 	0
scalar IntersectionExampleScenario.node[24].nic.mac1609_4 	SentPackets 	0
scalar IntersectionExampleScenario.node[24].nic.mac1609_4 	SNIRLostPackets 	0
scalar IntersectionExampleScenario.node[24].nic.mac1609_4 	RXTXLostPackets 	0
scalar IntersectionExampleScenario.node[24].nic.mac1609_4 	TotalLostPackets 	0
scalar IntersectionExampleScenario.node[24].nic.mac1609_4 	DroppedPacketsInMac 	0
scalar IntersectionExampleScenario.node[24].nic.mac1609_4 	TooLittleTime 	0
scalar IntersectionExampleScenario.node[24].nic.mac1609_4 	TimesIntoBackoff 	0
scalar IntersectionExampleScenario.node[24].nic.mac1609_4 	SlotsBackoff 	0
scalar IntersectionExampleScenario.node[24].nic.mac1609_4 	NumInternalContention 	0
scalar IntersectionExampleScenario.node[24].nic.mac1609_4 	totalBusyTime 	0
scalar IntersectionExampleScenario.node[24].veinsmobility 	startTime 	44
scalar IntersectionExampleScenario.node[24].veinsmobility 	totalTime 	81.75
scalar IntersectionExampleScenario.node[24].veinsmobility 	stopTime 	126
scalar IntersectionExampleScenario.node[24].veinsmobility 	minSpeed 	0
scalar IntersectionExampleScenario.node[24].veinsmobility 	maxSpeed 	15.375
scalar IntersectionExampleScenario.node[24].veinsmobility 	totalDistance 	567.55659771264
scalar IntersectionExampleScenario.node[24].veinsmobility 	totalCO2Emission 	185.75370409589
scalar IntersectionExampleScenario.node[29].appl 	VehicleRemoved 	0
scalar IntersectionExampleScenario.node[29].appl 	ArrivedAtDest 	1
scalar IntersectionExampleScenario.node[29].appl 	IntersectionEnterTime 	59.5
scalar IntersectionExampleScenario.node[29].appl 	IntersectionExitTime 	111.55193795872
scalar IntersectionExampleScenario.node[29].appl 	NumberOfCollisions 	0
scalar IntersectionExampleScenario.node[29].nic.phy80211p 	busyTime 	0
scalar IntersectionExampleScenario.node[29].nic.mac1609_4 	ReceivedUnicastPackets 	0
scalar IntersectionExampleScenario.node[29].nic.mac1609_4 	ReceivedBroadcasts 	0
scalar IntersectionExampleScenario.node[29].nic.mac1609_4 	SentPackets 	0
scalar IntersectionExampleScenario.node[29].nic.mac1609_4 	SNIRLostPackets 	0
scalar IntersectionExampleScenario.node[29].nic.mac1609_4 	RXTXLostPackets 	0
scalar IntersectionExampleScenario.node[29].nic.mac1609_4 	TotalLostPackets 	0
scalar IntersectionExampleScenario.node[29].nic.mac1609_4 	DroppedPacketsInMac 	0
scalar IntersectionExampleScenario.node[29].nic.mac1609_4 	TooLittleTime 	0
scalar IntersectionExampleScenario.node[29].nic.mac1609_4 	TimesIntoBackoff 	0
scalar IntersectionExampleScenario.node[29].nic.mac1609_4 	SlotsBackoff 	0
scalar IntersectionExampleScenario.node[29].nic.mac1609_4 	NumInternalContention 	0
scalar IntersectionExampleScenario.node[29].nic.mac1609_4 	totalBusyTime 	0
scalar IntersectionExampleScenario.node[29].veinsmobility 	startTime 	59.5
scalar IntersectionExampleScenario.node[29].veinsmobility 	totalTime 	68.25
scalar IntersectionExampleScenario.node[29].veinsmobility 	stopTime 	128
scalar IntersectionExampleScenario.node[29].veinsmobility 	minSpeed 	0
scalar IntersectionExampleScenario.node[29].veinsmobility 	maxSpeed 	15.02499961853
scalar IntersectionExampleScenario.node[29].veinsmobility 	totalDistance 	554.03681945801
scalar IntersectionExampleScenario.node[29].veinsmobility 	totalCO2Emission 	167.21703486244
scalar IntersectionExampleScenario.node[34].appl 	VehicleRemoved 	0
scalar IntersectionExampleScenario.node[34].appl 	ArrivedAtDest 	1
scalar IntersectionExampleScenario.node[34].appl 	IntersectionEnterTime 	87.25
scalar IntersectionExampleScenario.node[34].appl 	IntersectionExitTime 	111.52326086929
scalar IntersectionExampleScenario.node[34].appl 	NumberOfCollisions 	0
scalar IntersectionExampleScenario.node[34].nic.phy80211p 	busyTime 	0
scalar IntersectionExampleScenario.node[34].nic.mac1609_4 	ReceivedUnicastPackets 	0
scalar IntersectionExampleScenario.node[34].nic.mac1609_4 	ReceivedBroadcasts 	0
scalar IntersectionExampleScenario.node[34].nic.mac1609_4 	SentPackets 	0
scalar IntersectionExampleScenario.node[34].nic.mac1609_4 	SNIRLostPackets 	0
scalar IntersectionExampleScenario.node[34].nic.mac1609_4 	RXTXLostPackets 	0
scalar IntersectionExampleScenario.node[34].nic.mac1609_4 	TotalLostPackets 	0
scalar IntersectionExampleScenario.node[34].nic.mac1609_4 	DroppedPacketsInMac 	0
scalar IntersectionExampleScenario.node[34].nic.mac1609_4 	TooLittleTime 	0
scalar IntersectionExampleScenario.node[34].nic.mac1609_4 	TimesIntoBackoff 	0
scalar IntersectionExampleScenario.node[34].nic.mac1609_4 	SlotsBackoff 	0
scalar IntersectionExampleScenario.node[34].nic.mac1609_4 	NumInternalContention 	0
scalar IntersectionExampleScenario.node[34].nic.mac1609_4 	totalBusyTime 	0
scalar IntersectionExampleScenario.node[34].veinsmobility 	startTime 	87.25
scalar IntersectionExampleScenario.node[34].veinsmobility 	totalTime 	40.5
scalar IntersectionExampleScenario.node[34].veinsmobility 	stopTime 	128
scalar IntersectionExampleScenario.node[34].veinsmobility 	minSpeed 	5.6500000953674
scalar IntersectionExampleScenario.node[34].veinsmobility 	maxSpeed 	15.654147148132
scalar IntersectionExampleScenario.node[34].veinsmobility 	totalDistance 	548.66154448199
scalar IntersectionExampleScenario.node[34].veinsmobility 	totalCO2Emission 	138.59443580558
scalar IntersectionExampleScenario.node[35].appl 	VehicleRemoved 	0
scalar IntersectionExampleScenario.node[35].appl 	ArrivedAtDest 	1
scalar IntersectionExampleScenario.node[35].appl 	IntersectionEnterTime 	91
scalar IntersectionExampleScenario.node[35].appl 	IntersectionExitTime 	115.26984681381
scalar IntersectionExampleScenario.node[35].appl 	NumberOfCollisions 	0
scalar IntersectionExampleScenario.node[35].nic.phy80211p 	busyTime 	0
scalar IntersectionExampleScenario.node[35].nic.mac1609_4 	ReceivedUnicastPackets 	0
scalar IntersectionExampleScenario.node[35].nic.mac1609_4 	ReceivedBroadcasts 	0
scalar IntersectionExampleScenario.node[35].nic.mac1609_4 	SentPackets 	0
scalar IntersectionExampleScenario.node[35].nic.mac1609_4 	SNIRLostPackets 	0
scalar IntersectionExampleScenario.node[35].nic.mac1609_4 	RXTXLostPackets 	0
scalar IntersectionExampleScenario.node[35].nic.mac1609_4 	TotalLostPackets 	0
scalar IntersectionExampleScenario.node[35].nic.mac1609_4 	DroppedPacketsInMac 	0
scalar IntersectionExampleScenario.node[35].nic.mac1609_4 	TooLittleTime 	0
scalar IntersectionExampleScenario.node[35].nic.mac1609_4 	TimesIntoBackoff 	0
scalar IntersectionExampleScenario.node[35].nic.mac1609_4 	SlotsBackoff 	0
scalar IntersectionExampleScenario.node[35].nic.mac1609_4 	NumInternalContention 	0
scalar IntersectionExampleScenario.node[35].nic.mac1609_4 	totalBusyTime 	0
scalar IntersectionExampleScenario.node[35].veinsmobility 	startTime 	91
scalar IntersectionExampleScenario.node[35].veinsmobility 	totalTime 	41.25
scalar IntersectionExampleScenario.node[35].veinsmobility 	stopTime 	132.5
scalar IntersectionExampleScenario.node[35].veinsmobility 	minSpeed 	5.6500000953674
scalar IntersectionExampleScenario.node[35].veinsmobility 	maxSpeed 	15.25
scalar IntersectionExampleScenario.node[35].veinsmobility 	totalDistance 	553.88048918644
scalar IntersectionExampleScenario.node[35].veinsmobility 	totalCO2Emission 	126.23224410708
scalar IntersectionExampleScenario.node[36].appl 	VehicleRemoved 	0
scalar IntersectionExampleScenario.node[36].appl 	ArrivedAtDest 	1
scalar IntersectionExampleScenario.node[36].appl 	IntersectionEnterTime 	94.5
scalar IntersectionExampleScenario.node[36].appl 	IntersectionExitTime 	119.00002153157
scalar IntersectionExampleScenario.node[36].appl 	NumberOfCollisions 	0
scalar IntersectionExampleScenario.node[36].nic.phy80211p 	busyTime 	0
scalar IntersectionExampleScenario.node[36].nic.mac1609_4 	ReceivedUnicastPackets 	0
scalar IntersectionExampleScenario.node[36].nic.mac1609_4 	ReceivedBroadcasts 	0
scalar IntersectionExampleScenario.node[36].nic.mac1609_4 	SentPackets 	0
scalar IntersectionExampleScenario.node[36].nic.mac1609_4 	SNIRLostPackets 	0
scalar IntersectionExampleScenario.node[36].nic.mac1609_4 	RXTXLostPackets 	0
scalar IntersectionExampleScenario.node[36].nic.mac1609_4 	TotalLostPackets 	0
scalar IntersectionExampleScenario.node[36].nic.mac1609_4 	DroppedPacketsInMac 	0
scalar IntersectionExampleScenario.node[36].nic.mac1609_4 	TooLittleTime 	0
scalar IntersectionExampleScenario.node[36].nic.mac1609_4 	TimesIntoBackoff 	0
scalar IntersectionExampleScenario.node[36].nic.mac1609_4 	SlotsBackoff 	0
scalar IntersectionExampleScenario.node[36].nic.mac1609_4 	NumInternalContention 	0
scalar IntersectionExampleScenario.node[36].nic.mac1609_4 	totalBusyTime 	0
scalar IntersectionExampleScenario.node[36].veinsmobility 	startTime 	94.5
scalar IntersectionExampleScenario.node[36].veinsmobility 	totalTime 	41
scalar IntersectionExampleScenario.node[36].veinsmobility 	stopTime 	135.75
scalar IntersectionExampleScenario.node[36].veinsmobility 	minSpeed 	5.6500000953674
scalar IntersectionExampleScenario.node[36].veinsmobility 	maxSpeed 	15.393257141113
scalar IntersectionExampleScenario.node[36].veinsmobility 	totalDistance 	557.24500197054
scalar IntersectionExampleScenario.node[36].veinsmobility 	totalCO2Emission 	126.8513519239
scalar IntersectionExampleScenario.node[32].appl 	VehicleRemoved 	0
scalar IntersectionExampleScenario.node[32].appl 	ArrivedAtDest 	1
scalar IntersectionExampleScenario.node[32].appl 	IntersectionEnterTime 	67.75
scalar IntersectionExampleScenario.node[32].appl 	IntersectionExitTime 	124.36399681287
scalar IntersectionExampleScenario.node[32].appl 	NumberOfCollisions 	0
scalar IntersectionExampleScenario.node[32].nic.phy80211p 	busyTime 	0
scalar IntersectionExampleScenario.node[32].nic.mac1609_4 	ReceivedUnicastPackets 	0
scalar IntersectionExampleScenario.node[32].nic.mac1609_4 	ReceivedBroadcasts 	0
scalar IntersectionExampleScenario.node[32].nic.mac1609_4 	SentPackets 	0
scalar IntersectionExampleScenario.node[32].nic.mac1609_4 	SNIRLostPackets 	0
scalar IntersectionExampleScenario.node[32].nic.mac1609_4 	RXTXLostPackets 	0
scalar IntersectionExampleScenario.node[32].nic.mac1609_4 	TotalLostPackets 	0
scalar IntersectionExampleScenario.node[32].nic.mac1609_4 	DroppedPacketsInMac 	0
scalar IntersectionExampleScenario.node[32].nic.mac1609_4 	TooLittleTime 	0
scalar IntersectionExampleScenario.node[32].nic.mac1609_4 	TimesIntoBackoff 	0
scalar IntersectionExampleScenario.node[32].nic.mac1609_4 	SlotsBackoff 	0
scalar IntersectionExampleScenario.node[32].nic.mac1609_4 	NumInternalContention 	0
scalar IntersectionExampleScenario.node[32].nic.mac1609_4 	totalBusyTime 	0
scalar IntersectionExampleScenario.node[32].veinsmobility 	startTime 	67.75
scalar IntersectionExampleScenario.node[32].veinsmobility 	totalTime 	72.75
scalar IntersectionExampleScenario.node[32].veinsmobility 	stopTime 	140.75
scalar IntersectionExampleScenario.node[32].veinsmobility 	minSpeed 	0
scalar IntersectionExampleScenario.node[32].veinsmobility 	maxSpeed 	15.375
scalar IntersectionExampleScenario.node[32].veinsmobility 	totalDistance 	576.54304504395
scalar IntersectionExampleScenario.node[32].veinsmobility 	totalCO2Emission 	173.94755059358
scalar IntersectionExampleScenario.node[33].appl 	VehicleRemoved 	0
scalar IntersectionExampleScenario.node[33].appl 	ArrivedAtDest 	1
scalar IntersectionExampleScenario.node[33].appl 	IntersectionEnterTime 	79.25
scalar IntersectionExampleScenario.node[33].appl 	IntersectionExitTime 	125.34292056764
scalar IntersectionExampleScenario.node[33].appl 	NumberOfCollisions 	0
scalar IntersectionExampleScenario.node[33].nic.phy80211p 	busyTime 	0
scalar IntersectionExampleScenario.node[33].nic.mac1609_4 	ReceivedUnicastPackets 	0
scalar IntersectionExampleScenario.node[33].nic.mac1609_4 	ReceivedBroadcasts 	0
scalar IntersectionExampleScenario.node[33].nic.mac1609_4 	SentPackets 	0
scalar IntersectionExampleScenario.node[33].nic.mac1609_4 	SNIRLostPackets 	0
scalar IntersectionExampleScenario.node[33].nic.mac1609_4 	RXTXLostPackets 	0
scalar IntersectionExampleScenario.node[33].nic.mac1609_4 	TotalLostPackets 	0
scalar IntersectionExampleScenario.node[33].nic.mac1609_4 	DroppedPacketsInMac 	0
scalar IntersectionExampleScenario.node[33].nic.mac1609_4 	TooLittleTime 	0
scalar IntersectionExampleScenario.node[33].nic.mac1609_4 	TimesIntoBackoff 	0
scalar IntersectionExampleScenario.node[33].nic.mac1609_4 	SlotsBackoff 	0
scalar IntersectionExampleScenario.node[33].nic.mac1609_4 	NumInternalContention 	0
scalar IntersectionExampleScenario.node[33].nic.mac1609_4 	totalBusyTime 	0
scalar IntersectionExampleScenario.node[33].veinsmobility 	startTime 	79.25
scalar IntersectionExampleScenario.node[33].veinsmobility 	totalTime 	61.75
scalar IntersectionExampleScenario.node[33].veinsmobility 	stopTime 	141.25
scalar IntersectionExampleScenario.node[33].veinsmobility 	minSpeed 	0
scalar IntersectionExampleScenario.node[33].veinsmobility 	maxSpeed 	16.27499961853
scalar IntersectionExampleScenario.node[33].veinsmobility 	totalDistance 	550.0269529967
scalar IntersectionExampleScenario.node[33].veinsmobility 	totalCO2Emission 	157.18546855351
scalar IntersectionExampleScenario.node[39].appl 	VehicleRemoved 	0
scalar IntersectionExampleScenario.node[39].appl 	ArrivedAtDest 	1
scalar IntersectionExampleScenario.node[39].appl 	IntersectionEnterTime 	105
scalar IntersectionExampleScenario.node[39].appl 	IntersectionExitTime 	129.09309335725
scalar IntersectionExampleScenario.node[39].appl 	NumberOfCollisions 	0
scalar IntersectionExampleScenario.node[39].nic.phy80211p 	busyTime 	0
scalar IntersectionExampleScenario.node[39].nic.mac1609_4 	ReceivedUnicastPackets 	0
scalar IntersectionExampleScenario.node[39].nic.mac1609_4 	ReceivedBroadcasts 	0
scalar IntersectionExampleScenario.node[39].nic.mac1609_4 	SentPackets 	0
scalar IntersectionExampleScenario.node[39].nic.mac1609_4 	SNIRLostPackets 	0
scalar IntersectionExampleScenario.node[39].nic.mac1609_4 	RXTXLostPackets 	0
scalar IntersectionExampleScenario.node[39].nic.mac1609_4 	TotalLostPackets 	0
scalar IntersectionExampleScenario.node[39].nic.mac1609_4 	DroppedPacketsInMac 	0
scalar IntersectionExampleScenario.node[39].nic.mac1609_4 	TooLittleTime 	0
scalar IntersectionExampleScenario.node[39].nic.mac1609_4 	TimesIntoBackoff 	0
scalar IntersectionExampleScenario.node[39].nic.mac1609_4 	SlotsBackoff 	0
scalar IntersectionExampleScenario.node[39].nic.mac1609_4 	NumInternalContention 	0
scalar IntersectionExampleScenario.node[39].nic.mac1609_4 	totalBusyTime 	0
scalar IntersectionExampleScenario.node[39].veinsmobility 	startTime 	105
scalar IntersectionExampleScenario.node[39].veinsmobility 	totalTime 	40.5
scalar IntersectionExampleScenario.node[39].veinsmobility 	stopTime 	145.75
scalar IntersectionExampleScenario.node[39].veinsmobility 	minSpeed 	5.6500000953674
scalar IntersectionExampleScenario.node[39].veinsmobility 	maxSpeed 	15.375
scalar IntersectionExampleScenario.node[39].veinsmobility 	totalDistance 	549.89572560264
scalar IntersectionExampleScenario.node[39].veinsmobility 	totalCO2Emission 	128.91670012406
scalar IntersectionExampleScenario.node[41].appl 	VehicleRemoved 	0
scalar IntersectionExampleScenario.node[41].appl 	ArrivedAtDest 	1
scalar IntersectionExampleScenario.node[41].appl 	IntersectionEnterTime 	112
scalar IntersectionExampleScenario.node[41].appl 	IntersectionExitTime 	134.62246166295
scalar IntersectionExampleScenario.node[41].appl 	NumberOfCollisions 	0
scalar IntersectionExampleScenario.node[41].nic.phy80211p 	busyTime 	0
scalar IntersectionExampleScenario.node[41].nic.mac1609_4 	ReceivedUnicastPackets 	0
scalar IntersectionExampleScenario.node[41].nic.mac1609_4 	ReceivedBroadcasts 	0
scalar IntersectionExampleScenario.node[41].nic.mac1609_4 	SentPackets 	0
scalar IntersectionExampleScenario.node[41].nic.mac1609_4 	SNIRLostPackets 	0
scalar IntersectionExampleScenario.node[41].nic.mac1609_4 	RXTXLostPackets 	0
scalar IntersectionExampleScenario.node[41].nic.mac1609_4 	TotalLostPackets 	0
scalar IntersectionExampleScenario.node[41].nic.mac1609_4 	DroppedPacketsInMac 	0
scalar IntersectionExampleScenario.node[41].nic.mac1609_4 	TooLittleTime 	0
scalar IntersectionExampleScenario.node[41].nic.mac1609_4 	TimesIntoBackoff 	0
scalar IntersectionExampleScenario.node[41].nic.mac1609_4 	SlotsBackoff 	0
scalar IntersectionExampleScenario.node[41].nic.mac1609_4 	NumInternalContention 	0
scalar IntersectionExampleScenario.node[41].nic.mac1609_4 	totalBusyTime 	0
scalar IntersectionExampleScenario.node[41].veinsmobility 	startTime 	112
scalar IntersectionExampleScenario.node[41].veinsmobility 	totalTime 	38.25
scalar IntersectionExampleScenario.node[41].veinsmobility 	stopTime 	150.5
scalar IntersectionExampleScenario.node[41].veinsmobility 	minSpeed 	5.6500000953674
scalar IntersectionExampleScenario.node[41].veinsmobility 	maxSpeed 	16.125
scalar IntersectionExampleScenario.node[41].veinsmobility 	totalDistance 	554.28842926025
scalar IntersectionExampleScenario.node[41].veinsmobility 	totalCO2Emission 	120.05325138123
scalar IntersectionExampleScenario.node[37].appl 	VehicleRemoved 	0
scalar IntersectionExampleScenario.node[37].appl 	ArrivedAtDest 	1
scalar IntersectionExampleScenario.node[37].appl 	IntersectionEnterTime 	98.5
scalar IntersectionExampleScenario.node[37].appl 	IntersectionExitTime 	139.29815875343
scalar IntersectionExampleScenario.node[37].appl 	NumberOfCollisions 	0
scalar IntersectionExampleScenario.node[37].nic.phy80211p 	busyTime 	0
scalar IntersectionExampleScenario.node[37].nic.mac1609_4 	ReceivedUnicastPackets 	0
scalar IntersectionExampleScenario.node[37].nic.mac1609_4 	ReceivedBroadcasts 	0
scalar IntersectionExampleScenario.node[37].nic.mac1609_4 	SentPackets 	0
scalar IntersectionExampleScenario.node[37].nic.mac1609_4 	SNIRLostPackets 	0
scalar IntersectionExampleScenario.node[37].nic.mac1609_4 	RXTXLostPackets 	0
scalar IntersectionExampleScenario.node[37].nic.mac1609_4 	TotalLostPackets 	0
scalar IntersectionExampleScenario.node[37].nic.mac1609_4 	DroppedPacketsInMac 	0
scalar IntersectionExampleScenario.node[37].nic.mac1609_4 	TooLittleTime 	0
scalar IntersectionExampleScenario.node[37].nic.mac1609_4 	TimesIntoBackoff 	0
scalar IntersectionExampleScenario.node[37].nic.mac1609_4 	SlotsBackoff 	0
scalar IntersectionExampleScenario.node[37].nic.mac1609_4 	NumInternalContention 	0
[...]
scalar IntersectionExampleScenario.node[576].veinsmobility 	totalDistance 	287.42188262939
scalar IntersectionExampleScenario.node[576].veinsmobility 	totalCO2Emission 	80.304982686127
scalar IntersectionExampleScenario.node[577].appl 	VehicleRemoved 	0
scalar IntersectionExampleScenario.node[577].appl 	ArrivedAtDest 	0
scalar IntersectionExampleScenario.node[577].appl 	IntersectionEnterTime 	1769
scalar IntersectionExampleScenario.node[577].appl 	IntersectionExitTime 	-1
scalar IntersectionExampleScenario.node[577].appl 	NumberOfCollisions 	0
scalar IntersectionExampleScenario.node[577].nic.phy80211p 	busyTime 	0
scalar IntersectionExampleScenario.node[577].nic.mac1609_4 	ReceivedUnicastPackets 	0
scalar IntersectionExampleScenario.node[577].nic.mac1609_4 	ReceivedBroadcasts 	0
scalar IntersectionExampleScenario.node[577].nic.mac1609_4 	SentPackets 	0
scalar IntersectionExampleScenario.node[577].nic.mac1609_4 	SNIRLostPackets 	0
scalar IntersectionExampleScenario.node[577].nic.mac1609_4 	RXTXLostPackets 	0
scalar IntersectionExampleScenario.node[577].nic.mac1609_4 	TotalLostPackets 	0
scalar IntersectionExampleScenario.node[577].nic.mac1609_4 	DroppedPacketsInMac 	0
scalar IntersectionExampleScenario.node[577].nic.mac1609_4 	TooLittleTime 	0
scalar IntersectionExampleScenario.node[577].nic.mac1609_4 	TimesIntoBackoff 	0
scalar IntersectionExampleScenario.node[577].nic.mac1609_4 	SlotsBackoff 	0
scalar IntersectionExampleScenario.node[577].nic.mac1609_4 	NumInternalContention 	0
scalar IntersectionExampleScenario.node[577].nic.mac1609_4 	totalBusyTime 	0
scalar IntersectionExampleScenario.node[577].veinsmobility 	startTime 	1769
scalar IntersectionExampleScenario.node[577].veinsmobility 	totalTime 	31
scalar IntersectionExampleScenario.node[577].veinsmobility 	stopTime 	1800
scalar IntersectionExampleScenario.node[577].veinsmobility 	minSpeed 	0
scalar IntersectionExampleScenario.node[577].veinsmobility 	maxSpeed 	15.02499961853
scalar IntersectionExampleScenario.node[577].veinsmobility 	totalDistance 	294.89944458008
scalar IntersectionExampleScenario.node[577].veinsmobility 	totalCO2Emission 	73.246428144684
scalar IntersectionExampleScenario.node[578].appl 	VehicleRemoved 	0
scalar IntersectionExampleScenario.node[578].appl 	ArrivedAtDest 	0
scalar IntersectionExampleScenario.node[578].appl 	IntersectionEnterTime 	1770.5
scalar IntersectionExampleScenario.node[578].appl 	IntersectionExitTime 	-1
scalar IntersectionExampleScenario.node[578].appl 	NumberOfCollisions 	0
scalar IntersectionExampleScenario.node[578].nic.phy80211p 	busyTime 	0
scalar IntersectionExampleScenario.node[578].nic.mac1609_4 	ReceivedUnicastPackets 	0
scalar IntersectionExampleScenario.node[578].nic.mac1609_4 	ReceivedBroadcasts 	0
scalar IntersectionExampleScenario.node[578].nic.mac1609_4 	SentPackets 	0
scalar IntersectionExampleScenario.node[578].nic.mac1609_4 	SNIRLostPackets 	0
scalar IntersectionExampleScenario.node[578].nic.mac1609_4 	RXTXLostPackets 	0
scalar IntersectionExampleScenario.node[578].nic.mac1609_4 	TotalLostPackets 	0
scalar IntersectionExampleScenario.node[578].nic.mac1609_4 	DroppedPacketsInMac 	0
scalar IntersectionExampleScenario.node[578].nic.mac1609_4 	TooLittleTime 	0
scalar IntersectionExampleScenario.node[578].nic.mac1609_4 	TimesIntoBackoff 	0
scalar IntersectionExampleScenario.node[578].nic.mac1609_4 	SlotsBackoff 	0
scalar IntersectionExampleScenario.node[578].nic.mac1609_4 	NumInternalContention 	0
scalar IntersectionExampleScenario.node[578].nic.mac1609_4 	totalBusyTime 	0
scalar IntersectionExampleScenario.node[578].veinsmobility 	startTime 	1770.5
scalar IntersectionExampleScenario.node[578].veinsmobility 	totalTime 	29.5
scalar IntersectionExampleScenario.node[578].veinsmobility 	stopTime 	1800
scalar IntersectionExampleScenario.node[578].veinsmobility 	minSpeed 	0
scalar IntersectionExampleScenario.node[578].veinsmobility 	maxSpeed 	16.27499961853
scalar IntersectionExampleScenario.node[578].veinsmobility 	totalDistance 	286.51968383789
scalar IntersectionExampleScenario.node[578].veinsmobility 	totalCO2Emission 	74.990780683727
scalar IntersectionExampleScenario.node[579].appl 	VehicleRemoved 	0
scalar IntersectionExampleScenario.node[579].appl 	ArrivedAtDest 	0
scalar IntersectionExampleScenario.node[579].appl 	IntersectionEnterTime 	1772.5
scalar IntersectionExampleScenario.node[579].appl 	IntersectionExitTime 	-1
scalar IntersectionExampleScenario.node[579].appl 	NumberOfCollisions 	0
scalar IntersectionExampleScenario.node[579].nic.phy80211p 	busyTime 	0
scalar IntersectionExampleScenario.node[579].nic.mac1609_4 	ReceivedUnicastPackets 	0
scalar IntersectionExampleScenario.node[579].nic.mac1609_4 	ReceivedBroadcasts 	0
scalar IntersectionExampleScenario.node[579].nic.mac1609_4 	SentPackets 	0
scalar IntersectionExampleScenario.node[579].nic.mac1609_4 	SNIRLostPackets 	0
scalar IntersectionExampleScenario.node[579].nic.mac1609_4 	RXTXLostPackets 	0
scalar IntersectionExampleScenario.node[579].nic.mac1609_4 	TotalLostPackets 	0
scalar IntersectionExampleScenario.node[579].nic.mac1609_4 	DroppedPacketsInMac 	0
scalar IntersectionExampleScenario.node[579].nic.mac1609_4 	TooLittleTime 	0
scalar IntersectionExampleScenario.node[579].nic.mac1609_4 	TimesIntoBackoff 	0
scalar IntersectionExampleScenario.node[579].nic.mac1609_4 	SlotsBackoff 	0
scalar IntersectionExampleScenario.node[579].nic.mac1609_4 	NumInternalContention 	0
scalar IntersectionExampleScenario.node[579].nic.mac1609_4 	totalBusyTime 	0
scalar IntersectionExampleScenario.node[579].veinsmobility 	startTime 	1772.5
scalar IntersectionExampleScenario.node[579].veinsmobility 	totalTime 	27.5
scalar IntersectionExampleScenario.node[579].veinsmobility 	stopTime 	1800
scalar IntersectionExampleScenario.node[579].veinsmobility 	minSpeed 	1.845932841301
scalar IntersectionExampleScenario.node[579].veinsmobility 	maxSpeed 	15.64999961853
scalar IntersectionExampleScenario.node[579].veinsmobility 	totalDistance 	290.01010894775
scalar IntersectionExampleScenario.node[579].veinsmobility 	totalCO2Emission 	70.53410775175
scalar IntersectionExampleScenario.node[580].appl 	VehicleRemoved 	0
scalar IntersectionExampleScenario.node[580].appl 	ArrivedAtDest 	0
scalar IntersectionExampleScenario.node[580].appl 	IntersectionEnterTime 	1776.25
scalar IntersectionExampleScenario.node[580].appl 	IntersectionExitTime 	-1
scalar IntersectionExampleScenario.node[580].appl 	NumberOfCollisions 	0
scalar IntersectionExampleScenario.node[580].nic.phy80211p 	busyTime 	0
scalar IntersectionExampleScenario.node[580].nic.mac1609_4 	ReceivedUnicastPackets 	0
scalar IntersectionExampleScenario.node[580].nic.mac1609_4 	ReceivedBroadcasts 	0
scalar IntersectionExampleScenario.node[580].nic.mac1609_4 	SentPackets 	0
scalar IntersectionExampleScenario.node[580].nic.mac1609_4 	SNIRLostPackets 	0
scalar IntersectionExampleScenario.node[580].nic.mac1609_4 	RXTXLostPackets 	0
scalar IntersectionExampleScenario.node[580].nic.mac1609_4 	TotalLostPackets 	0
scalar IntersectionExampleScenario.node[580].nic.mac1609_4 	DroppedPacketsInMac 	0
scalar IntersectionExampleScenario.node[580].nic.mac1609_4 	TooLittleTime 	0
scalar IntersectionExampleScenario.node[580].nic.mac1609_4 	TimesIntoBackoff 	0
scalar IntersectionExampleScenario.node[580].nic.mac1609_4 	SlotsBackoff 	0
scalar IntersectionExampleScenario.node[580].nic.mac1609_4 	NumInternalContention 	0
scalar IntersectionExampleScenario.node[580].nic.mac1609_4 	totalBusyTime 	0
scalar IntersectionExampleScenario.node[580].veinsmobility 	startTime 	1776.25
scalar IntersectionExampleScenario.node[580].veinsmobility 	totalTime 	23.75
scalar IntersectionExampleScenario.node[580].veinsmobility 	stopTime 	1800
scalar IntersectionExampleScenario.node[580].veinsmobility 	minSpeed 	3.1967849731445
scalar IntersectionExampleScenario.node[580].veinsmobility 	maxSpeed 	15.02499961853
scalar IntersectionExampleScenario.node[580].veinsmobility 	totalDistance 	262.43167114258
scalar IntersectionExampleScenario.node[580].veinsmobility 	totalCO2Emission 	64.596442381596
scalar IntersectionExampleScenario.node[581].appl 	VehicleRemoved 	0
scalar IntersectionExampleScenario.node[581].appl 	ArrivedAtDest 	0
scalar IntersectionExampleScenario.node[581].appl 	IntersectionEnterTime 	1777
scalar IntersectionExampleScenario.node[581].appl 	IntersectionExitTime 	-1
scalar IntersectionExampleScenario.node[581].appl 	NumberOfCollisions 	0
scalar IntersectionExampleScenario.node[581].nic.phy80211p 	busyTime 	0
scalar IntersectionExampleScenario.node[581].nic.mac1609_4 	ReceivedUnicastPackets 	0
scalar IntersectionExampleScenario.node[581].nic.mac1609_4 	ReceivedBroadcasts 	0
scalar IntersectionExampleScenario.node[581].nic.mac1609_4 	SentPackets 	0
scalar IntersectionExampleScenario.node[581].nic.mac1609_4 	SNIRLostPackets 	0
scalar IntersectionExampleScenario.node[581].nic.mac1609_4 	RXTXLostPackets 	0
scalar IntersectionExampleScenario.node[581].nic.mac1609_4 	TotalLostPackets 	0
scalar IntersectionExampleScenario.node[581].nic.mac1609_4 	DroppedPacketsInMac 	0
scalar IntersectionExampleScenario.node[581].nic.mac1609_4 	TooLittleTime 	0
scalar IntersectionExampleScenario.node[581].nic.mac1609_4 	TimesIntoBackoff 	0
scalar IntersectionExampleScenario.node[581].nic.mac1609_4 	SlotsBackoff 	0
scalar IntersectionExampleScenario.node[581].nic.mac1609_4 	NumInternalContention 	0
scalar IntersectionExampleScenario.node[581].nic.mac1609_4 	totalBusyTime 	0
scalar IntersectionExampleScenario.node[581].veinsmobility 	startTime 	1777
scalar IntersectionExampleScenario.node[581].veinsmobility 	totalTime 	23
scalar IntersectionExampleScenario.node[581].veinsmobility 	stopTime 	1800
scalar IntersectionExampleScenario.node[581].veinsmobility 	minSpeed 	0
scalar IntersectionExampleScenario.node[581].veinsmobility 	maxSpeed 	15.64999961853
scalar IntersectionExampleScenario.node[581].veinsmobility 	totalDistance 	272.97187042236
scalar IntersectionExampleScenario.node[581].veinsmobility 	totalCO2Emission 	60.335676329632
scalar IntersectionExampleScenario.node[582].appl 	VehicleRemoved 	0
scalar IntersectionExampleScenario.node[582].appl 	ArrivedAtDest 	0
scalar IntersectionExampleScenario.node[582].appl 	IntersectionEnterTime 	1781.25
scalar IntersectionExampleScenario.node[582].appl 	IntersectionExitTime 	-1
scalar IntersectionExampleScenario.node[582].appl 	NumberOfCollisions 	0
scalar IntersectionExampleScenario.node[582].nic.phy80211p 	busyTime 	0
scalar IntersectionExampleScenario.node[582].nic.mac1609_4 	ReceivedUnicastPackets 	0
scalar IntersectionExampleScenario.node[582].nic.mac1609_4 	ReceivedBroadcasts 	0
scalar IntersectionExampleScenario.node[582].nic.mac1609_4 	SentPackets 	0
scalar IntersectionExampleScenario.node[582].nic.mac1609_4 	SNIRLostPackets 	0
scalar IntersectionExampleScenario.node[582].nic.mac1609_4 	RXTXLostPackets 	0
scalar IntersectionExampleScenario.node[582].nic.mac1609_4 	TotalLostPackets 	0
scalar IntersectionExampleScenario.node[582].nic.mac1609_4 	DroppedPacketsInMac 	0
scalar IntersectionExampleScenario.node[582].nic.mac1609_4 	TooLittleTime 	0
scalar IntersectionExampleScenario.node[582].nic.mac1609_4 	TimesIntoBackoff 	0
scalar IntersectionExampleScenario.node[582].nic.mac1609_4 	SlotsBackoff 	0
scalar IntersectionExampleScenario.node[582].nic.mac1609_4 	NumInternalContention 	0
scalar IntersectionExampleScenario.node[582].nic.mac1609_4 	totalBusyTime 	0
scalar IntersectionExampleScenario.node[582].veinsmobility 	startTime 	1781.25
scalar IntersectionExampleScenario.node[582].veinsmobility 	totalTime 	18.75
scalar IntersectionExampleScenario.node[582].veinsmobility 	stopTime 	1800
scalar IntersectionExampleScenario.node[582].veinsmobility 	minSpeed 	5.6500000953674
scalar IntersectionExampleScenario.node[582].veinsmobility 	maxSpeed 	15.64999961853
scalar IntersectionExampleScenario.node[582].veinsmobility 	totalDistance 	244.30712890625
scalar IntersectionExampleScenario.node[582].veinsmobility 	totalCO2Emission 	58.078259884031
scalar IntersectionExampleScenario.node[583].appl 	VehicleRemoved 	0
scalar IntersectionExampleScenario.node[583].appl 	ArrivedAtDest 	0
scalar IntersectionExampleScenario.node[583].appl 	IntersectionEnterTime 	1785
scalar IntersectionExampleScenario.node[583].appl 	IntersectionExitTime 	-1
scalar IntersectionExampleScenario.node[583].appl 	NumberOfCollisions 	0
scalar IntersectionExampleScenario.node[583].nic.phy80211p 	busyTime 	0
scalar IntersectionExampleScenario.node[583].nic.mac1609_4 	ReceivedUnicastPackets 	0
scalar IntersectionExampleScenario.node[583].nic.mac1609_4 	ReceivedBroadcasts 	0
scalar IntersectionExampleScenario.node[583].nic.mac1609_4 	SentPackets 	0
scalar IntersectionExampleScenario.node[583].nic.mac1609_4 	SNIRLostPackets 	0
scalar IntersectionExampleScenario.node[583].nic.mac1609_4 	RXTXLostPackets 	0
scalar IntersectionExampleScenario.node[583].nic.mac1609_4 	TotalLostPackets 	0
scalar IntersectionExampleScenario.node[583].nic.mac1609_4 	DroppedPacketsInMac 	0
scalar IntersectionExampleScenario.node[583].nic.mac1609_4 	TooLittleTime 	0
scalar IntersectionExampleScenario.node[583].nic.mac1609_4 	TimesIntoBackoff 	0
scalar IntersectionExampleScenario.node[583].nic.mac1609_4 	SlotsBackoff 	0
scalar IntersectionExampleScenario.node[583].nic.mac1609_4 	NumInternalContention 	0
scalar IntersectionExampleScenario.node[583].nic.mac1609_4 	totalBusyTime 	0
scalar IntersectionExampleScenario.node[583].veinsmobility 	startTime 	1785
scalar IntersectionExampleScenario.node[583].veinsmobility 	totalTime 	15
scalar IntersectionExampleScenario.node[583].veinsmobility 	stopTime 	1800
scalar IntersectionExampleScenario.node[583].veinsmobility 	minSpeed 	5.6500000953674
scalar IntersectionExampleScenario.node[583].veinsmobility 	maxSpeed 	15.02499961853
scalar IntersectionExampleScenario.node[583].veinsmobility 	totalDistance 	197.16314697266
scalar IntersectionExampleScenario.node[583].veinsmobility 	totalCO2Emission 	50.151912995064
scalar IntersectionExampleScenario.node[584].appl 	VehicleRemoved 	0
scalar IntersectionExampleScenario.node[584].appl 	ArrivedAtDest 	0
scalar IntersectionExampleScenario.node[584].appl 	IntersectionEnterTime 	1787.25
scalar IntersectionExampleScenario.node[584].appl 	IntersectionExitTime 	-1
scalar IntersectionExampleScenario.node[584].appl 	NumberOfCollisions 	0
scalar IntersectionExampleScenario.node[584].nic.phy80211p 	busyTime 	0
scalar IntersectionExampleScenario.node[584].nic.mac1609_4 	ReceivedUnicastPackets 	0
scalar IntersectionExampleScenario.node[584].nic.mac1609_4 	ReceivedBroadcasts 	0
scalar IntersectionExampleScenario.node[584].nic.mac1609_4 	SentPackets 	0
scalar IntersectionExampleScenario.node[584].nic.mac1609_4 	SNIRLostPackets 	0
scalar IntersectionExampleScenario.node[584].nic.mac1609_4 	RXTXLostPackets 	0
scalar IntersectionExampleScenario.node[584].nic.mac1609_4 	TotalLostPackets 	0
scalar IntersectionExampleScenario.node[584].nic.mac1609_4 	DroppedPacketsInMac 	0
scalar IntersectionExampleScenario.node[584].nic.mac1609_4 	TooLittleTime 	0
scalar IntersectionExampleScenario.node[584].nic.mac1609_4 	TimesIntoBackoff 	0
scalar IntersectionExampleScenario.node[584].nic.mac1609_4 	SlotsBackoff 	0
scalar IntersectionExampleScenario.node[584].nic.mac1609_4 	NumInternalContention 	0
scalar IntersectionExampleScenario.node[584].nic.mac1609_4 	totalBusyTime 	0
scalar IntersectionExampleScenario.node[584].veinsmobility 	startTime 	1787.25
scalar IntersectionExampleScenario.node[584].veinsmobility 	totalTime 	12.75
scalar IntersectionExampleScenario.node[584].veinsmobility 	stopTime 	1800
scalar IntersectionExampleScenario.node[584].veinsmobility 	minSpeed 	5.6500000953674
scalar IntersectionExampleScenario.node[584].veinsmobility 	maxSpeed 	15.64999961853
scalar IntersectionExampleScenario.node[584].veinsmobility 	totalDistance 	174.42093658447
scalar IntersectionExampleScenario.node[584].veinsmobility 	totalCO2Emission 	50.902417907459
scalar IntersectionExampleScenario.node[585].appl 	VehicleRemoved 	0
scalar IntersectionExampleScenario.node[585].appl 	ArrivedAtDest 	0
scalar IntersectionExampleScenario.node[585].appl 	IntersectionEnterTime 	1793
scalar IntersectionExampleScenario.node[585].appl 	IntersectionExitTime 	-1
scalar IntersectionExampleScenario.node[585].appl 	NumberOfCollisions 	0
scalar IntersectionExampleScenario.node[585].nic.phy80211p 	busyTime 	0
scalar IntersectionExampleScenario.node[585].nic.mac1609_4 	ReceivedUnicastPackets 	0
scalar IntersectionExampleScenario.node[585].nic.mac1609_4 	ReceivedBroadcasts 	0
scalar IntersectionExampleScenario.node[585].nic.mac1609_4 	SentPackets 	0
scalar IntersectionExampleScenario.node[585].nic.mac1609_4 	SNIRLostPackets 	0
scalar IntersectionExampleScenario.node[585].nic.mac1609_4 	RXTXLostPackets 	0
scalar IntersectionExampleScenario.node[585].nic.mac1609_4 	TotalLostPackets 	0
scalar IntersectionExampleScenario.node[585].nic.mac1609_4 	DroppedPacketsInMac 	0
scalar IntersectionExampleScenario.node[585].nic.mac1609_4 	TooLittleTime 	0
scalar IntersectionExampleScenario.node[585].nic.mac1609_4 	TimesIntoBackoff 	0
scalar IntersectionExampleScenario.node[585].nic.mac1609_4 	SlotsBackoff 	0
scalar IntersectionExampleScenario.node[585].nic.mac1609_4 	NumInternalContention 	0
scalar IntersectionExampleScenario.node[585].nic.mac1609_4 	totalBusyTime 	0
scalar IntersectionExampleScenario.node[585].veinsmobility 	startTime 	1793
scalar IntersectionExampleScenario.node[585].veinsmobility 	totalTime 	7
scalar IntersectionExampleScenario.node[585].veinsmobility 	stopTime 	1800
scalar IntersectionExampleScenario.node[585].veinsmobility 	minSpeed 	5.6500000953674
scalar IntersectionExampleScenario.node[585].veinsmobility 	maxSpeed 	15.64999961853
scalar IntersectionExampleScenario.node[585].veinsmobility 	totalDistance 	86.149085998535
scalar IntersectionExampleScenario.node[585].veinsmobility 	totalCO2Emission 	38.172347322079
scalar IntersectionExampleScenario.node[586].appl 	VehicleRemoved 	0
scalar IntersectionExampleScenario.node[586].appl 	ArrivedAtDest 	0
scalar IntersectionExampleScenario.node[586].appl 	IntersectionEnterTime 	1798
scalar IntersectionExampleScenario.node[586].appl 	IntersectionExitTime 	-1
scalar IntersectionExampleScenario.node[586].appl 	NumberOfCollisions 	0
scalar IntersectionExampleScenario.node[586].nic.phy80211p 	busyTime 	0
scalar IntersectionExampleScenario.node[586].nic.mac1609_4 	ReceivedUnicastPackets 	0
scalar IntersectionExampleScenario.node[586].nic.mac1609_4 	ReceivedBroadcasts 	0
scalar IntersectionExampleScenario.node[586].nic.mac1609_4 	SentPackets 	0
scalar IntersectionExampleScenario.node[586].nic.mac1609_4 	SNIRLostPackets 	0
scalar IntersectionExampleScenario.node[586].nic.mac1609_4 	RXTXLostPackets 	0
scalar IntersectionExampleScenario.node[586].nic.mac1609_4 	TotalLostPackets 	0
scalar IntersectionExampleScenario.node[586].nic.mac1609_4 	DroppedPacketsInMac 	0
scalar IntersectionExampleScenario.node[586].nic.mac1609_4 	TooLittleTime 	0
scalar IntersectionExampleScenario.node[586].nic.mac1609_4 	TimesIntoBackoff 	0
scalar IntersectionExampleScenario.node[586].nic.mac1609_4 	SlotsBackoff 	0
scalar IntersectionExampleScenario.node[586].nic.mac1609_4 	NumInternalContention 	0
scalar IntersectionExampleScenario.node[586].nic.mac1609_4 	totalBusyTime 	0
scalar IntersectionExampleScenario.node[586].veinsmobility 	startTime 	1798
scalar IntersectionExampleScenario.node[586].veinsmobility 	totalTime 	2
scalar IntersectionExampleScenario.node[586].veinsmobility 	stopTime 	1800
scalar IntersectionExampleScenario.node[586].veinsmobility 	minSpeed 	5.6500000953674
scalar IntersectionExampleScenario.node[586].veinsmobility 	maxSpeed 	10.02499961853
scalar IntersectionExampleScenario.node[586].veinsmobility 	totalDistance 	15.049987792969
scalar IntersectionExampleScenario.node[586].veinsmobility 	totalCO2Emission 	11.317369352905
