file 19501961 1591417157                                        
version 2
run nodebug-16-20200606-00:16:03-5072
attr configname nodebug
attr datetime 20200606-00:16:03
attr experiment nodebug
attr inifile omnetpp.ini
attr iterationvars ""
attr iterationvars2 $repetition=16
attr measurement ""
attr network "\"org.car2x.veins.modules.application.ExtTraCIScenarioManagerLaunchd.IntersectionExampleScenario\""
attr processid 5072
attr repetition 16
attr replication #16
attr resultdir results
attr runnumber 16
attr seedset 16
param **.coreDebug false
param **.debug false
param *.**.nic.mac1609_4.bitrate 18Mbps
param *.**.nic.mac1609_4.txPower 20mW
param *.**.nic.mac1609_4.useServiceChannel false
param *.**.nic.phy80211p.analogueModels "xmldoc(\"config.xml\")"
param *.**.nic.phy80211p.decider "xmldoc(\"config.xml\")"
param *.**.nic.phy80211p.sensitivity -89dBm
param *.**.nic.phy80211p.thermalNoise -110dBm
param *.**.nic.phy80211p.usePropagationDelay true
param *.**.nic.phy80211p.useThermalNoise true
param *.annotations.draw false
param *.connectionManager.alpha 2.0
param *.connectionManager.carrierFrequency "5.890e9 Hz"
param *.connectionManager.pMax 20mW
param *.connectionManager.sat -89dBm
param *.connectionManager.sendDirect true
param *.manager.autoShutdown true
param *.manager.host "\"localhost\""
param *.manager.launchConfig "xmldoc(\"paramics.launchd.xml\")"
param *.manager.margin 25
param *.manager.moduleDisplayString "\"\""
param *.manager.moduleName "\"node\""
param *.manager.moduleType "\"org.car2x.veins.nodes.Car\""
param *.manager.port 9999
param *.manager.updateInterval 250ms
param *.node[*0].veinsmobility.accidentCount 0
param *.node[*0].veinsmobility.accidentDuration 30s
param *.node[*0].veinsmobility.accidentStart 75s
param *.node[*].appl.LiderSelectZoneRadio 55.0
param *.node[*].appl.ShareDataZoneRadio 110.0
param *.node[*].appl.TiempoSemaforo 30.0
param *.node[*].appl.beaconInterval 1s
param *.node[*].appl.beaconPriority 3
param *.node[*].appl.dataOnSch false
param *.node[*].appl.dataPriority 2
param *.node[*].appl.debug false
param *.node[*].appl.headerLength "256 bit"
param *.node[*].appl.maxOffset 0.005s
param *.node[*].appl.sendBeacons false
param *.node[*].appl.sendData true
param *.node[*].applType "\"Dummy\""
param *.node[*].mobilityType "\"TraCIMobility\""
param *.node[*].mobilityType.debug true
param *.node[*].veinsmobility.x 0
param *.node[*].veinsmobility.y 0
param *.node[*].veinsmobility.z 1.895
param *.node[*].veinsmobilityType "\"org.car2x.veins.modules.mobility.traci.TraCIMobility\""
param *.node[*].veinsmobilityType.debug true
param *.playgroundSizeX 8500m
param *.playgroundSizeY 8500m
param *.playgroundSizeZ 50m
param *.world.use2D false
param *.world.useTorus false

vector 27528  IntersectionExampleScenario.manager  vehiclesinsim  ETV
attr type  int
vector 27529  IntersectionExampleScenario.manager  realtime  ETV
attr type  int
attr unit  s
vector 27532  IntersectionExampleScenario.node[0].veinsmobility  posx  ETV
vector 27533  IntersectionExampleScenario.node[0].veinsmobility  posy  ETV
vector 27534  IntersectionExampleScenario.node[0].veinsmobility  speed  ETV
vector 27535  IntersectionExampleScenario.node[0].veinsmobility  acceleration  ETV
vector 27536  IntersectionExampleScenario.node[0].veinsmobility  co2emission  ETV
vector 27539  IntersectionExampleScenario.node[1].veinsmobility  posx  ETV
vector 27540  IntersectionExampleScenario.node[1].veinsmobility  posy  ETV
vector 27541  IntersectionExampleScenario.node[1].veinsmobility  speed  ETV
vector 27542  IntersectionExampleScenario.node[1].veinsmobility  acceleration  ETV
vector 27543  IntersectionExampleScenario.node[1].veinsmobility  co2emission  ETV
vector 27546  IntersectionExampleScenario.node[2].veinsmobility  posx  ETV
vector 27547  IntersectionExampleScenario.node[2].veinsmobility  posy  ETV
vector 27548  IntersectionExampleScenario.node[2].veinsmobility  speed  ETV
vector 27549  IntersectionExampleScenario.node[2].veinsmobility  acceleration  ETV
vector 27550  IntersectionExampleScenario.node[2].veinsmobility  co2emission  ETV
vector 27553  IntersectionExampleScenario.node[3].veinsmobility  posx  ETV
vector 27554  IntersectionExampleScenario.node[3].veinsmobility  posy  ETV
vector 27555  IntersectionExampleScenario.node[3].veinsmobility  speed  ETV
vector 27556  IntersectionExampleScenario.node[3].veinsmobility  acceleration  ETV
vector 27557  IntersectionExampleScenario.node[3].veinsmobility  co2emission  ETV
vector 27560  IntersectionExampleScenario.node[4].veinsmobility  posx  ETV
vector 27561  IntersectionExampleScenario.node[4].veinsmobility  posy  ETV
vector 27562  IntersectionExampleScenario.node[4].veinsmobility  speed  ETV
vector 27563  IntersectionExampleScenario.node[4].veinsmobility  acceleration  ETV
vector 27564  IntersectionExampleScenario.node[4].veinsmobility  co2emission  ETV
vector 27567  IntersectionExampleScenario.node[5].veinsmobility  posx  ETV
vector 27568  IntersectionExampleScenario.node[5].veinsmobility  posy  ETV
vector 27574  IntersectionExampleScenario.node[6].veinsmobility  posx  ETV
vector 27575  IntersectionExampleScenario.node[6].veinsmobility  posy  ETV
vector 27569  IntersectionExampleScenario.node[5].veinsmobility  speed  ETV
vector 27570  IntersectionExampleScenario.node[5].veinsmobility  acceleration  ETV
vector 27571  IntersectionExampleScenario.node[5].veinsmobility  co2emission  ETV
vector 27576  IntersectionExampleScenario.node[6].veinsmobility  speed  ETV
vector 27577  IntersectionExampleScenario.node[6].veinsmobility  acceleration  ETV
vector 27578  IntersectionExampleScenario.node[6].veinsmobility  co2emission  ETV
vector 27581  IntersectionExampleScenario.node[7].veinsmobility  posx  ETV
vector 27582  IntersectionExampleScenario.node[7].veinsmobility  posy  ETV
vector 27583  IntersectionExampleScenario.node[7].veinsmobility  speed  ETV
vector 27584  IntersectionExampleScenario.node[7].veinsmobility  acceleration  ETV
vector 27585  IntersectionExampleScenario.node[7].veinsmobility  co2emission  ETV
vector 27588  IntersectionExampleScenario.node[8].veinsmobility  posx  ETV
vector 27589  IntersectionExampleScenario.node[8].veinsmobility  posy  ETV
vector 27590  IntersectionExampleScenario.node[8].veinsmobility  speed  ETV
vector 27591  IntersectionExampleScenario.node[8].veinsmobility  acceleration  ETV
vector 27592  IntersectionExampleScenario.node[8].veinsmobility  co2emission  ETV
vector 27595  IntersectionExampleScenario.node[9].veinsmobility  posx  ETV
vector 27596  IntersectionExampleScenario.node[9].veinsmobility  posy  ETV
vector 27597  IntersectionExampleScenario.node[9].veinsmobility  speed  ETV
vector 27598  IntersectionExampleScenario.node[9].veinsmobility  acceleration  ETV
vector 27599  IntersectionExampleScenario.node[9].veinsmobility  co2emission  ETV
vector 27602  IntersectionExampleScenario.node[10].veinsmobility  posx  ETV
vector 27603  IntersectionExampleScenario.node[10].veinsmobility  posy  ETV
vector 27604  IntersectionExampleScenario.node[10].veinsmobility  speed  ETV
vector 27605  IntersectionExampleScenario.node[10].veinsmobility  acceleration  ETV
vector 27606  IntersectionExampleScenario.node[10].veinsmobility  co2emission  ETV
vector 27609  IntersectionExampleScenario.node[11].veinsmobility  posx  ETV
vector 27610  IntersectionExampleScenario.node[11].veinsmobility  posy  ETV
vector 27611  IntersectionExampleScenario.node[11].veinsmobility  speed  ETV
vector 27612  IntersectionExampleScenario.node[11].veinsmobility  acceleration  ETV
vector 27613  IntersectionExampleScenario.node[11].veinsmobility  co2emission  ETV
vector 27616  IntersectionExampleScenario.node[12].veinsmobility  posx  ETV
vector 27617  IntersectionExampleScenario.node[12].veinsmobility  posy  ETV
vector 27618  IntersectionExampleScenario.node[12].veinsmobility  speed  ETV
vector 27619  IntersectionExampleScenario.node[12].veinsmobility  acceleration  ETV
vector 27620  IntersectionExampleScenario.node[12].veinsmobility  co2emission  ETV
vector 27623  IntersectionExampleScenario.node[13].veinsmobility  posx  ETV
vector 27624  IntersectionExampleScenario.node[13].veinsmobility  posy  ETV
vector 27625  IntersectionExampleScenario.node[13].veinsmobility  speed  ETV
vector 27626  IntersectionExampleScenario.node[13].veinsmobility  acceleration  ETV
vector 27627  IntersectionExampleScenario.node[13].veinsmobility  co2emission  ETV
vector 27630  IntersectionExampleScenario.node[14].veinsmobility  posx  ETV
vector 27631  IntersectionExampleScenario.node[14].veinsmobility  posy  ETV
vector 27632  IntersectionExampleScenario.node[14].veinsmobility  speed  ETV
vector 27633  IntersectionExampleScenario.node[14].veinsmobility  acceleration  ETV
vector 27634  IntersectionExampleScenario.node[14].veinsmobility  co2emission  ETV
27543	8899 5041 105 2725 9 48.25 158 0.973 11.200708441096 460.54226745241 2217.6396535753
27542	13940 4481 105 2725 9 48.25 158 -3.0170135498047 2.5 36.643835067749 170.2425392037
27541	18421 4948 100 2725 8.75 48.25 159 5.6500000953674 15.02499961853 2223.5251436234 31642.336524886
27540	23369 5200 95 2725 8.5 48.25 160 483.14999389648 483.14999389648 77303.999023438 37349426.656348
27539	28569 5173 95 2725 8.5 48.25 160 184.17810058594 735.07006835938 72010.918991089 36676594.180766
27536	33742 5801 11 2880 1.5 50.25 196 0.973 11.648172402475 565.37096353784 2911.3341660903
27535	39543 5223 11 2880 1.5 50.25 196 -7.03919506073 4 38.341367721558 476.33694168539
27534	44766 5609 8 2880 1.25 50.25 197 0 15.64999961853 2177.4668385983 30628.127941716
27533	50375 6357 5 2880 1 50.25 198 486.63604736328 785.82187652588 110667.15789032 63757256.839205
27532	56732 6296 5 2880 1 50.25 198 236.95220947266 483.14999389648 87481.95111084 39652283.323296
vector 27637  IntersectionExampleScenario.node[15].veinsmobility  posx  ETV
vector 27638  IntersectionExampleScenario.node[15].veinsmobility  posy  ETV
vector 27639  IntersectionExampleScenario.node[15].veinsmobility  speed  ETV
vector 27640  IntersectionExampleScenario.node[15].veinsmobility  acceleration  ETV
vector 27641  IntersectionExampleScenario.node[15].veinsmobility  co2emission  ETV
vector 27644  IntersectionExampleScenario.node[16].veinsmobility  posx  ETV
vector 27645  IntersectionExampleScenario.node[16].veinsmobility  posy  ETV
vector 27646  IntersectionExampleScenario.node[16].veinsmobility  speed  ETV
vector 27647  IntersectionExampleScenario.node[16].veinsmobility  acceleration  ETV
vector 27648  IntersectionExampleScenario.node[16].veinsmobility  co2emission  ETV
27557	63830 4972 245 3170 14 54 161 0.973 12.099024792222 570.478362097 3517.6633695387
27556	68802 4779 245 3170 14 54 161 -3.3412208557129 2.5 40.887662887573 358.87655135015
27555	73581 4977 236 3170 13.75 54 162 5.6500000953674 16.27499961853 2184.1475028992 31044.68469897
27554	78558 5313 227 3170 13.5 54 163 486.85000610352 785.82187652588 93237.431770325 55047040.220398
27553	83871 5315 227 3170 13.5 54 163 236.63806152344 483.14999389648 70845.659576416 31700420.123734
vector 27651  IntersectionExampleScenario.node[17].veinsmobility  posx  ETV
vector 27652  IntersectionExampleScenario.node[17].veinsmobility  posy  ETV
vector 27653  IntersectionExampleScenario.node[17].veinsmobility  speed  ETV
vector 27654  IntersectionExampleScenario.node[17].veinsmobility  acceleration  ETV
vector 27655  IntersectionExampleScenario.node[17].veinsmobility  co2emission  ETV
vector 27658  IntersectionExampleScenario.node[18].veinsmobility  posx  ETV
vector 27659  IntersectionExampleScenario.node[18].veinsmobility  posy  ETV
vector 27665  IntersectionExampleScenario.node[19].veinsmobility  posx  ETV
vector 27666  IntersectionExampleScenario.node[19].veinsmobility  posy  ETV
vector 27660  IntersectionExampleScenario.node[18].veinsmobility  speed  ETV
vector 27661  IntersectionExampleScenario.node[18].veinsmobility  acceleration  ETV
vector 27662  IntersectionExampleScenario.node[18].veinsmobility  co2emission  ETV
vector 27667  IntersectionExampleScenario.node[19].veinsmobility  speed  ETV
vector 27668  IntersectionExampleScenario.node[19].veinsmobility  acceleration  ETV
vector 27669  IntersectionExampleScenario.node[19].veinsmobility  co2emission  ETV
27585	90389 5015 589 3751 21 60 157 0.973 11.648172402475 490.03080766711 2640.3953759878
27584	95404 4835 589 3751 21 60 157 -3.385181427002 2.5 38.341367721558 234.17975452598
27583	100239 4900 572 3751 20.75 60 158 5.6500000953674 15.64999961853 2205.3184404373 31708.019177218
27582	105139 5218 555 3751 20.5 60 159 483.14999389648 785.82187652588 90936.835502625 53783720.934043
27581	110357 5215 555 3751 20.5 60 159 483.14999389648 732.45071411133 85184.669921875 46586716.755804
27592	115572 5042 831 4091 24.5 63.25 156 0.97223939240464 11.648172402475 478.55726528827 2494.9288210999
27591	120614 4705 831 4091 24.5 63.25 156 -3.3159408569336 2.5 38.680875778198 194.61215164911
27590	125319 4941 812 4091 24.25 63.25 157 5.6500000953674 15.64999961853 2258.5110845566 33143.893702035
27589	130260 5183 793 4091 24 63.25 158 236.07427978516 795.46562957764 83099.348144531 48057890.218277
27588	135443 5202 793 4091 24 63.25 158 483.14999389648 483.14999389648 76337.699035645 36882558.823143
vector 27672  IntersectionExampleScenario.node[20].veinsmobility  posx  ETV
vector 27673  IntersectionExampleScenario.node[20].veinsmobility  posy  ETV
vector 27674  IntersectionExampleScenario.node[20].veinsmobility  speed  ETV
vector 27679  IntersectionExampleScenario.node[21].veinsmobility  posx  ETV
vector 27680  IntersectionExampleScenario.node[21].veinsmobility  posy  ETV
vector 27675  IntersectionExampleScenario.node[20].veinsmobility  acceleration  ETV
vector 27676  IntersectionExampleScenario.node[20].veinsmobility  co2emission  ETV
vector 27681  IntersectionExampleScenario.node[21].veinsmobility  speed  ETV
27564	141278 5906 330 4261 16.25 65 196 0.973 11.648172402475 575.3993590021 2961.285517727
27563	147184 5393 330 4261 16.25 65 196 -7.26416015625 4 39.699392318726 477.26375084443
27562	152577 5700 319 4261 16 65 197 0 15.64999961853 2179.263197422 31157.860608885
27561	158277 6462 308 4261 15.75 65 198 184.17810058594 483.36395263672 81524.46661377 35461707.903998
27560	164739 6421 308 4261 15.75 65 198 486.85000610352 733.43934631348 104437.76818848 56076922.322632
vector 27682  IntersectionExampleScenario.node[21].veinsmobility  acceleration  ETV
vector 27683  IntersectionExampleScenario.node[21].veinsmobility  co2emission  ETV
27578	171329 5983 450 4491 18.75 67.25 195 0.973 11.200708441096 540.2035365088 2636.8493036969
27577	177312 5900 450 4491 18.75 67.25 195 -4.2110710144043 2.5000004768372 35.625318527222 371.0170211971
27576	183212 6221 435 4491 18.5 67.25 196 0 15.02499961853 2265.2920030467 30221.08939118
27575	189433 6438 420 4491 18.25 67.25 197 168.58435058594 486.96920776367 79169.170318604 33990826.078818
27574	195871 6456 420 4491 18.25 67.25 197 236.30364990234 486.85000610352 87098.06539917 39587052.578521
vector 27686  IntersectionExampleScenario.node[22].veinsmobility  posx  ETV
vector 27687  IntersectionExampleScenario.node[22].veinsmobility  posy  ETV
vector 27688  IntersectionExampleScenario.node[22].veinsmobility  speed  ETV
vector 27689  IntersectionExampleScenario.node[22].veinsmobility  acceleration  ETV
vector 27690  IntersectionExampleScenario.node[22].veinsmobility  co2emission  ETV
vector 27693  IntersectionExampleScenario.node[23].veinsmobility  posx  ETV
vector 27694  IntersectionExampleScenario.node[23].veinsmobility  posy  ETV
vector 27695  IntersectionExampleScenario.node[23].veinsmobility  speed  ETV
vector 27696  IntersectionExampleScenario.node[23].veinsmobility  acceleration  ETV
vector 27697  IntersectionExampleScenario.node[23].veinsmobility  co2emission  ETV
27613	203129 4965 1983 5583 39.25 78 156 0.973 12.099024792222 519.1732516405 3010.8909347161
27612	208094 4703 1983 5583 39.25 78 156 -3.3001174926758 2.5 40.378400802612 295.58413656871
27611	212797 4853 1964 5583 39 78 157 5.6500000953674 16.27499961853 2181.9524784088 31860.579051152
27610	217650 5186 1945 5583 38.75 78 158 184.17810058594 483.18841552734 62799.437042236 26675614.576856
27609	222836 5205 1945 5583 38.75 78 158 486.85000610352 732.64247131348 84833.884811401 46443302.144765
vector 27700  IntersectionExampleScenario.node[24].veinsmobility  posx  ETV
vector 27701  IntersectionExampleScenario.node[24].veinsmobility  posy  ETV
vector 27702  IntersectionExampleScenario.node[24].veinsmobility  speed  ETV
vector 27703  IntersectionExampleScenario.node[24].veinsmobility  acceleration  ETV
vector 27704  IntersectionExampleScenario.node[24].veinsmobility  co2emission  ETV
27550	228442 7868 129 5752 10 79.5 279 0.973 11.450879080643 644.15544189191 2893.9131096675
27549	236310 6776 129 5752 10 79.5 279 -36.822658538818 4 37.32285118103 1684.2700357026
27548	243086 7260 122 5752 9.75 79.5 280 0 15.375 2202.2294902802 31143.692746333
27547	250346 9196 115 5752 9.5 79.5 281 236.78112792969 486.85000610352 128263.8578186 59711149.754573
27546	259542 9197 115 5752 9.5 79.5 281 483.14999389648 785.82187652588 151879.8755722 84253823.427214
vector 27707  IntersectionExampleScenario.node[25].veinsmobility  posx  ETV
vector 27708  IntersectionExampleScenario.node[25].veinsmobility  posy  ETV
vector 27709  IntersectionExampleScenario.node[25].veinsmobility  speed  ETV
vector 27710  IntersectionExampleScenario.node[25].veinsmobility  acceleration  ETV
vector 27711  IntersectionExampleScenario.node[25].veinsmobility  co2emission  ETV
27571	269140 7623 435 5965 18.5 81.5 253 0.973 11.648172402475 622.49832380076 2975.1943227555
27570	276763 8123 435 5965 18.5 81.5 253 -3.7366466522217 2.5000009536743 39.529638290405 337.26901534488
27569	284886 8107 420 5965 18.25 81.5 254 0 15.64999961853 2200.0987773482 29552.194137823
27568	292993 8362 407 5965 18 81.5 255 238.50659179688 486.85000610352 115998.97439575 53854777.242048
27567	301355 8365 407 5965 18 81.5 255 482.95199584961 785.82187652588 140005.12982941 78864944.262894
27620	309720 5350 2139 6253 41.25 84.25 173 0.973 11.810082123732 565.43104190824 3257.0043847048
27619	315070 5220 2139 6253 41.25 84.25 173 -3.5714321136475 2.5 39.699392318726 364.14406400347
27618	320290 5410 2118 6253 41 84.25 174 5.6500000953674 15.875 2193.2077345848 29836.68442943
27617	325700 5770 2097 6253 40.75 84.25 175 486.85000610352 735.00328063965 93341.044921875 50748382.072731
27616	331470 5767 2097 6253 40.75 84.25 175 486.82919311523 785.82187652588 99748.329902649 58602143.817596
vector 27714  IntersectionExampleScenario.node[26].veinsmobility  posx  ETV
vector 27715  IntersectionExampleScenario.node[26].veinsmobility  posy  ETV
vector 27721  IntersectionExampleScenario.node[27].veinsmobility  posx  ETV
vector 27722  IntersectionExampleScenario.node[27].veinsmobility  posy  ETV
vector 27716  IntersectionExampleScenario.node[26].veinsmobility  speed  ETV
vector 27717  IntersectionExampleScenario.node[26].veinsmobility  acceleration  ETV
vector 27718  IntersectionExampleScenario.node[26].veinsmobility  co2emission  ETV
vector 27723  IntersectionExampleScenario.node[27].veinsmobility  speed  ETV
vector 27724  IntersectionExampleScenario.node[27].veinsmobility  acceleration  ETV
vector 27725  IntersectionExampleScenario.node[27].veinsmobility  co2emission  ETV
vector 27728  IntersectionExampleScenario.node[28].veinsmobility  posx  ETV
vector 27729  IntersectionExampleScenario.node[28].veinsmobility  posy  ETV
vector 27730  IntersectionExampleScenario.node[28].veinsmobility  speed  ETV
vector 27731  IntersectionExampleScenario.node[28].veinsmobility  acceleration  ETV
vector 27732  IntersectionExampleScenario.node[28].veinsmobility  co2emission  ETV
vector 27735  IntersectionExampleScenario.node[29].veinsmobility  posx  ETV
vector 27736  IntersectionExampleScenario.node[29].veinsmobility  posy  ETV
vector 27737  IntersectionExampleScenario.node[29].veinsmobility  speed  ETV
vector 27738  IntersectionExampleScenario.node[29].veinsmobility  acceleration  ETV
vector 27739  IntersectionExampleScenario.node[29].veinsmobility  co2emission  ETV
vector 27742  IntersectionExampleScenario.node[30].veinsmobility  posx  ETV
vector 27743  IntersectionExampleScenario.node[30].veinsmobility  posy  ETV
vector 27744  IntersectionExampleScenario.node[30].veinsmobility  speed  ETV
vector 27749  IntersectionExampleScenario.node[31].veinsmobility  posx  ETV
vector 27750  IntersectionExampleScenario.node[31].veinsmobility  posy  ETV
vector 27745  IntersectionExampleScenario.node[30].veinsmobility  acceleration  ETV
vector 27746  IntersectionExampleScenario.node[30].veinsmobility  co2emission  ETV
vector 27756  IntersectionExampleScenario.node[32].veinsmobility  posx  ETV
vector 27757  IntersectionExampleScenario.node[32].veinsmobility  posy  ETV
vector 27751  IntersectionExampleScenario.node[31].veinsmobility  speed  ETV
vector 27752  IntersectionExampleScenario.node[31].veinsmobility  acceleration  ETV
vector 27753  IntersectionExampleScenario.node[31].veinsmobility  co2emission  ETV
vector 27758  IntersectionExampleScenario.node[32].veinsmobility  speed  ETV
vector 27759  IntersectionExampleScenario.node[32].veinsmobility  acceleration  ETV
vector 27760  IntersectionExampleScenario.node[32].veinsmobility  co2emission  ETV
vector 27763  IntersectionExampleScenario.node[33].veinsmobility  posx  ETV
vector 27764  IntersectionExampleScenario.node[33].veinsmobility  posy  ETV
vector 27765  IntersectionExampleScenario.node[33].veinsmobility  speed  ETV
vector 27766  IntersectionExampleScenario.node[33].veinsmobility  acceleration  ETV
vector 27767  IntersectionExampleScenario.node[33].veinsmobility  co2emission  ETV
vector 27770  IntersectionExampleScenario.node[34].veinsmobility  posx  ETV
vector 27771  IntersectionExampleScenario.node[34].veinsmobility  posy  ETV
vector 27772  IntersectionExampleScenario.node[34].veinsmobility  speed  ETV
vector 27773  IntersectionExampleScenario.node[34].veinsmobility  acceleration  ETV
vector 27774  IntersectionExampleScenario.node[34].veinsmobility  co2emission  ETV
27599	340846 7543 1234 7615 29.75 95.5 264 0.973 11.450879080643 623.02636947008 2876.9647263342
27598	348389 6817 1234 7615 29.75 95.5 264 -6.7711477279663 4 36.98334312439 456.08212473492
27597	355206 7167 1213 7615 29.5 95.5 265 0 15.375 2209.3353545666 30725.485793837
27596	362373 8772 1192 7615 29.25 95.5 266 237.32635498047 785.82187652588 136239.05564117 74008463.485998
27595	371145 8779 1192 7615 29.25 95.5 266 483.14999389648 483.14999389648 128517.89837646 62093421.816178
27606	379924 7915 1426 7780 32 96.75 260 0.973 11.36141391502 634.60910253546 2890.0956026066
27605	387839 7292 1426 7780 32 96.75 260 -4.5 2.5 38.341367721558 434.75555604707
27604	395131 7792 1404 7780 31.75 96.75 261 0 15.25 2251.7429887792 31172.491719619
27603	402923 8629 1381 7780 31.5 96.75 262 486.85000610352 802.70781707764 144717.24781036 82269961.328262
27602	411552 8618 1381 7780 31.5 96.75 262 236.94903564453 483.14999389648 118405.38647461 54593887.765129
27627	420170 6574 2430 8132 44.75 99.5 220 0.973 11.450879080643 566.7908278206 2765.3018392674
27626	426744 6853 2430 8132 44.75 99.5 220 -3.7741615772247 2.5 36.98334312439 326.15823485875
27625	433597 6976 2409 8132 44.5 99.5 221 0 15.375 2205.1932447329 28566.942007548
27624	440573 7312 2388 8132 44.25 99.5 222 483.14999389648 785.82187652588 123945.14933014 71120299.089393
27623	447885 7315 2388 8132 44.25 99.5 222 483.14999389648 732.19758605957 115781.70089722 61472444.950592
27634	455200 6415 2683 8256 47.75 100.5 212 0.973 11.54047740176 590.12242014698 2899.6150074875
27633	461615 6522 2683 8256 47.75 100.5 212 -4.5 2.5000019073486 39.869146347046 378.56002593144
27632	468137 6822 2662 8256 47.5 100.5 213 1.339574098587 15.665156364441 2270.8244848251 30481.093174677
27631	474959 7036 2640 8256 47.25 100.5 214 236.19555664062 798.59687805176 113397.97646332 64479970.468227
27630	481995 7066 2640 8256 47.25 100.5 214 483.14999389648 483.14999389648 103394.09869385 49954858.152865
vector 27777  IntersectionExampleScenario.node[35].veinsmobility  posx  ETV
vector 27778  IntersectionExampleScenario.node[35].veinsmobility  posy  ETV
vector 27779  IntersectionExampleScenario.node[35].veinsmobility  speed  ETV
vector 27780  IntersectionExampleScenario.node[35].veinsmobility  acceleration  ETV
vector 27781  IntersectionExampleScenario.node[35].veinsmobility  co2emission  ETV
27641	489462 6426 2970 8843 51.5 105 215 0.973 11.200708441096 555.86737887157 2721.6683570655
27640	495888 6570 2970 8843 51.5 105 215 -2.4631319046021 2.5 35.455564498901 323.04156969785
27639	502458 6829 2951 8843 51.25 105 216 1.0658262968063 15.02499961853 2236.9905830622 27912.867333552
27638	509287 7156 2932 8843 51 105 217 486.85000610352 800.17032623291 123472.27680206 72346420.132619
27637	516443 7175 2932 8843 51 105 217 238.14709472656 483.14999389648 96355.94039917 43836465.38435
27655	523618 6383 3279 9060 55.25 106.75 207 0.973 11.200708441096 576.06626843164 2770.3834220751
27654	530001 6405 3279 9060 55.25 106.75 207 -3.2777442932129 2.5 38.341367721558 339.3603910041
27653	536406 6585 3256 9060 55 106.75 208 1.4113301038742 15.290885925293 2247.3565692902 29046.989134264
27652	542991 6914 3233 9060 54.75 106.75 209 486.85000610352 800.95704650879 119167.26077271 70004924.238355
27651	549905 6925 3233 9060 54.75 106.75 209 236.53015136719 483.14999389648 92754.028320312 42186415.190076
27648	556830 6648 3107 9376 53.25 109.5 226 0.973 12.099024792222 620.03841296305 3292.2072799675
27647	563478 6158 3107 9376 53.25 109.5 226 -9.32297706604 4 41.227170944214 527.4884054897
27646	569636 6351 3086 9376 53 109.5 227 0 16.27499961853 2206.6355006695 32495.96185838
27645	575987 7534 3065 9376 52.75 109.5 228 184.17810058594 731.40208435059 103738.16281128 51200335.308576
27644	583521 7563 3065 9376 52.75 109.5 228 486.85000610352 486.85000610352 111001.8013916 54041227.685002
27669	591084 6592 3588 9668 58.5 112.5 217 0.973 11.200708441096 552.99417495305 2623.2519160412
27668	597676 6724 3588 9668 58.5 112.5 217 -3.8750088214874 2.5000009536743 35.795072555542 326.54526571176
27667	604400 6939 3561 9668 58.25 112.5 218 0 15.02499961853 2183.6239346545 28127.703524297
27666	611339 7248 3534 9668 58 112.5 219 184.17810058594 483.20159912109 90192.92956543 39069779.453319
27665	618587 7273 3534 9668 58 112.5 219 486.85000610352 733.08317565918 115146.60748291 61606038.016623
vector 27784  IntersectionExampleScenario.node[36].veinsmobility  posx  ETV
vector 27785  IntersectionExampleScenario.node[36].veinsmobility  posy  ETV
vector 27786  IntersectionExampleScenario.node[36].veinsmobility  speed  ETV
vector 27787  IntersectionExampleScenario.node[36].veinsmobility  acceleration  ETV
vector 27788  IntersectionExampleScenario.node[36].veinsmobility  co2emission  ETV
27690	626261 5430 4891 9862 71.5 114.75 174 0.973 11.648172402475 535.94888148795 2889.9354426884
27689	631691 5380 4891 9862 71.5 114.75 174 -2.7872409820557 2.5 38.171613693237 296.15415679256
27688	637071 5523 4866 9862 71.25 114.75 175 5.6500000953674 15.64999961853 2180.9717345238 29100.041162724
27687	642594 5840 4841 9862 71 114.75 176 184.17810058594 483.14999389648 70362.061645508 29889805.082023
27686	648434 5855 4841 9862 71 114.75 176 486.85000610352 732.41770935059 93856.904312134 51004681.166284
27711	654289 5281 5911 10312 81 121 161 0.973 11.200708441096 476.12241963923 2399.2442179793
27710	659570 5051 5911 10312 81 121 161 -3.3406524658203 2.5 36.134572982788 216.99138863039
27709	664621 5170 5884 10312 80.75 121 162 5.6500000953674 15.02499961853 2202.1176109314 30707.449632764
27708	669791 5461 5857 10312 80.5 121 163 184.17810058594 486.85000610352 64910.146148682 27654447.516404
27707	675252 5479 5857 10312 80.5 121 163 238.04016113281 486.85000610352 70729.872070312 31665953.533971
vector 27791  IntersectionExampleScenario.node[37].veinsmobility  posx  ETV
vector 27792  IntersectionExampleScenario.node[37].veinsmobility  posy  ETV
vector 27793  IntersectionExampleScenario.node[37].veinsmobility  speed  ETV
vector 27794  IntersectionExampleScenario.node[37].veinsmobility  acceleration  ETV
vector 27795  IntersectionExampleScenario.node[37].veinsmobility  co2emission  ETV
27676	681132 7094 4234 10544 64.75 124.25 239 0.973 11.648172402475 609.93667794552 2914.1979583419
27675	688226 6450 4234 10544 64.75 124.25 239 -7.03919506073 4 38.341367721558 475.9086449619
27674	694676 6788 4209 10544 64.5 124.25 240 0 15.64999961853 2210.503415823 31351.95420278
27673	701464 8084 4184 10544 64.25 124.25 241 486.85000610352 486.85000610352 117330.85147095 57122525.754761
27672	709548 8073 4184 10544 64.25 124.25 241 237.02679443359 785.82187652588 123740.87194061 67697422.087624
27683	717621 7146 4288 10595 65.25 125 240 0.973 11.200708441096 593.56032958935 2771.9459641924
27682	724767 6580 4288 10595 65.25 125 240 -7.8462238311768 4 35.285810470581 467.50052229924
27681	731347 6838 4261 10595 65 125 241 0 15.02499961853 2178.8987905979 29332.453627984
27680	738185 8054 4234 10595 64.75 125 242 236.11450195312 483.14999389648 108278.31494141 49559434.104007
27679	746239 8095 4234 10595 64.75 125 242 184.17810058594 483.36395263672 101761.10437012 44854994.05158
27697	754334 6438 5070 10629 73.25 125.5 210 0.973 11.648172402475 563.14732215778 2885.6359876213
27696	760772 6701 5070 10629 73.25 125.5 210 -3.8043673038483 2.5000019073486 38.341367721558 335.88933789143
27695	767473 6870 5043 10629 73 125.5 211 0 15.64999961853 2201.2035446949 29339.767639085
27694	774343 7128 5016 10629 72.75 125.5 212 483.14999389648 731.6755065918 110737.2403717 58893253.807586
27693	781471 7108 5016 10629 72.75 125.5 212 184.17810058594 486.86724853516 87336.165740967 37888481.034087
27704	788579 6223 5695 10826 79 128.75 200 0.973 11.200708441096 540.01082677784 2660.4695675884
27703	794802 6100 5695 10826 79 128.75 200 -2.8740234375 2.5000009536743 35.625318527222 311.86157052599
27702	800902 6490 5666 10826 78.75 128.75 201 2.6623351573944 15.02499961853 2178.0848200321 26981.932158096
27701	807392 6764 5637 10826 78.5 128.75 202 238.06976318359 483.14999389648 89128.80682373 40351729.182177
27700	814156 6802 5637 10826 78.5 128.75 202 184.17810058594 483.21063232422 81541.665527344 34752297.894139
27718	820958 5561 6448 10891 86.25 130 176 0.973 11.450879080643 542.34639843977 2982.042257076
27717	826519 5442 6448 10891 86.25 130 176 -2.9289665222168 2.5 38.680875778198 311.55543902498
27716	831961 5729 6421 10891 86 130 177 5.6500000953674 15.387709617615 2208.7293643951 29477.194490203
27715	837690 6041 6396 10891 85.75 130 178 483.14999389648 733.39112854004 94383.38494873 51048336.244249
27714	843731 6023 6396 10891 85.75 130 178 184.17810058594 486.85000610352 71141.462799072 30221264.392573
27732	849754 5578 6560 10891 87.25 130 172 0.973 11.648172402475 568.50280452147 3201.2968976307
27731	855332 5769 6560 10891 87.25 130 172 -4.5 2.5 38.193647384644 359.64221419808
27730	861101 5852 6531 10891 87 130 173 5.6500000953674 15.64999961853 2211.022043705 29671.070125756
27729	866953 5907 6502 10891 86.75 130 174 236.15997314453 486.85000610352 75805.017608643 34042385.102458
27728	872860 5904 6502 10891 86.75 130 174 483.11535644531 785.82187652588 98663.422492981 57791699.805617
27725	878764 5749 6475 10917 86.5 130.5 177 0.973 11.990504229548 573.91252873127 3101.5968544835
27724	884513 5523 6475 10917 86.5 130.5 177 -4.5 2.5 41.227170944214 359.55016099209
27723	890036 5812 6448 10917 86.25 130.5 178 5.6500000953674 16.125 2314.5596413612 32191.34544071
27722	895848 6086 6421 10917 86 130.5 179 483.14999389648 483.14999389648 86483.848907471 41784671.071789
27721	901934 6060 6421 10917 86 130.5 179 159.76721191406 732.55322265625 77110.355270386 37848475.179156
vector 27798  IntersectionExampleScenario.node[38].veinsmobility  posx  ETV
vector 27799  IntersectionExampleScenario.node[38].veinsmobility  posy  ETV
vector 27800  IntersectionExampleScenario.node[38].veinsmobility  speed  ETV
vector 27801  IntersectionExampleScenario.node[38].veinsmobility  acceleration  ETV
vector 27802  IntersectionExampleScenario.node[38].veinsmobility  co2emission  ETV
27746	908395 5309 6989 11031 91 132.5 167 0.973 12.099024792222 557.0316982632 3183.0502152412
27745	913704 5402 6989 11031 91 132.5 167 -3.0681915283203 2.5 43.433965682983 270.70955094259
27744	919106 5453 6960 11031 90.75 132.5 168 5.6500000953674 16.560647964478 2275.9556646347 32493.664624473
27743	924559 5770 6931 11031 90.5 132.5 169 483.14999389648 733.73545837402 89520.368377686 48360260.116206
27742	930329 5754 6931 11031 90.5 132.5 169 167.69665527344 487.06399536133 66334.123901367 28013477.048327
vector 27805  IntersectionExampleScenario.node[39].veinsmobility  posx  ETV
vector 27806  IntersectionExampleScenario.node[39].veinsmobility  posy  ETV
vector 27807  IntersectionExampleScenario.node[39].veinsmobility  speed  ETV
vector 27808  IntersectionExampleScenario.node[39].veinsmobility  acceleration  ETV
vector 27809  IntersectionExampleScenario.node[39].veinsmobility  co2emission  ETV
27662	936484 9616 3561 11577 58.25 141.25 333 0.973 10.916047529558 702.46938851363 2861.6941998592
27661	946100 9052 3561 11577 58.25 141.25 333 -28.185390472412 4 33.758031845093 1238.1614591044
27660	955152 9280 3534 11577 58 141.25 334 0 14.625 2254.7036261559 27929.879934894
27659	964432 11305 3509 11577 57.75 141.25 335 486.63604736328 806.16446685791 182832.47187042 102424710.06896
27658	975737 11251 3509 11577 57.75 141.25 335 237.62878417969 483.14999389648 153101.73629761 71173628.312511
vector 27812  IntersectionExampleScenario.node[40].veinsmobility  posx  ETV
vector 27813  IntersectionExampleScenario.node[40].veinsmobility  posy  ETV
vector 27814  IntersectionExampleScenario.node[40].veinsmobility  speed  ETV
vector 27819  IntersectionExampleScenario.node[41].veinsmobility  posx  ETV
vector 27820  IntersectionExampleScenario.node[41].veinsmobility  posy  ETV
vector 27815  IntersectionExampleScenario.node[40].veinsmobility  acceleration  ETV
vector 27816  IntersectionExampleScenario.node[40].veinsmobility  co2emission  ETV
vector 27821  IntersectionExampleScenario.node[41].veinsmobility  speed  ETV
vector 27822  IntersectionExampleScenario.node[41].veinsmobility  acceleration  ETV
vector 27823  IntersectionExampleScenario.node[41].veinsmobility  co2emission  ETV
27760	987790 6474 7086 11685 91.75 143 206 0.973 11.200708441096 553.94155053624 2649.1544764842
27759	994264 6596 7086 11685 91.75 143 206 -3.958108663559 2.5 37.492597579956 310.96299626963
27758	1000860 6833 7053 11685 91.5 143 207 0 15.073845863342 2186.9969705939 28509.265379328
27757	1007693 7124 7020 11685 91.25 143 208 486.85000610352 785.82187652588 116662.50269318 67304754.725962
27756	1014817 7140 7020 11685 91.25 143 208 236.27355957031 483.14999389648 92159.24230957 41867218.760027
27767	1021957 6589 7189 11748 92.5 144 207 0.973 11.90022389248 600.0849304509 3054.6602007194
27766	1028546 6639 7189 11748 92.5 144 207 -4.5 2.5000019073486 40.038900375366 440.15911558875
27765	1035185 6863 7154 11748 92.25 144 208 1.7878437042236 16 2299.7125798464 30986.813995541
27764	1042048 7171 7119 11748 92 144 209 483.14999389648 808.82032012939 119216.35713959 70221898.860223
27763	1049219 7178 7119 11748 92 144 209 483.14999389648 732.71279907227 109134.13331604 58024680.439212
vector 27826  IntersectionExampleScenario.node[42].veinsmobility  posx  ETV
vector 27827  IntersectionExampleScenario.node[42].veinsmobility  posy  ETV
vector 27828  IntersectionExampleScenario.node[42].veinsmobility  speed  ETV
vector 27829  IntersectionExampleScenario.node[42].veinsmobility  acceleration  ETV
vector 27830  IntersectionExampleScenario.node[42].veinsmobility  co2emission  ETV
vector 27833  IntersectionExampleScenario.node[43].veinsmobility  posx  ETV
vector 27834  IntersectionExampleScenario.node[43].veinsmobility  posy  ETV
vector 27835  IntersectionExampleScenario.node[43].veinsmobility  speed  ETV
vector 27836  IntersectionExampleScenario.node[43].veinsmobility  acceleration  ETV
vector 27837  IntersectionExampleScenario.node[43].veinsmobility  co2emission  ETV
vector 27840  IntersectionExampleScenario.node[44].veinsmobility  posx  ETV
vector 27841  IntersectionExampleScenario.node[44].veinsmobility  posy  ETV
vector 27842  IntersectionExampleScenario.node[44].veinsmobility  speed  ETV
vector 27843  IntersectionExampleScenario.node[44].veinsmobility  acceleration  ETV
vector 27844  IntersectionExampleScenario.node[44].veinsmobility  co2emission  ETV
27739	1057600 8105 6731 12542 88.75 156 270 0.973 11.200708441096 616.68483787405 2722.1506509052
27738	1065705 7311 6731 12542 88.75 156 270 -7.2451009750366 4 35.455564498901 450.04028067034
27737	1073016 7692 6702 12542 88.5 156 271 0 15.02499961853 2202.8972468376 29887.772712641
27736	1080708 9329 6673 12542 88.25 156 272 184.17810058594 486.85000610352 116193.19976807 51798608.322098
27735	1090037 9352 6673 12542 88.25 156 272 236.20440673828 486.85000610352 123578.19717407 57336760.625194
27753	1099389 7954 7053 12610 91.5 157 263 0.973 11.200708441096 657.14593489152 2989.0736653273
27752	1107343 7013 7053 12610 91.5 157 263 -4.5 2.5 41.457914352417 468.46109868341
27751	1114356 7682 7020 12610 91.25 157 264 0 16.033708572388 2255.9328654334 32433.598186133
27750	1122038 9109 6989 12610 91 157 265 169.95465087891 487.03237915039 111589.22967529 49292240.708553
27749	1131147 9122 6989 12610 91 157 265 238.98089599609 486.85000610352 121019.54983521 56340880.989186
vector 27847  IntersectionExampleScenario.node[45].veinsmobility  posx  ETV
vector 27848  IntersectionExampleScenario.node[45].veinsmobility  posy  ETV
vector 27849  IntersectionExampleScenario.node[45].veinsmobility  speed  ETV
vector 27854  IntersectionExampleScenario.node[46].veinsmobility  posx  ETV
vector 27855  IntersectionExampleScenario.node[46].veinsmobility  posy  ETV
vector 27850  IntersectionExampleScenario.node[45].veinsmobility  acceleration  ETV
vector 27851  IntersectionExampleScenario.node[45].veinsmobility  co2emission  ETV
vector 27856  IntersectionExampleScenario.node[46].veinsmobility  speed  ETV
vector 27857  IntersectionExampleScenario.node[46].veinsmobility  acceleration  ETV
vector 27858  IntersectionExampleScenario.node[46].veinsmobility  co2emission  ETV
27774	1141071 8443 7403 12743 94 159 261 0.973 11.648172402475 638.63797126827 3015.4955748819
27773	1149514 8659 7403 12743 94 159 261 -3.9400253295898 2.5000004768372 38.850629806519 359.96451616058
27772	1158173 8837 7366 12743 93.75 159 262 0 15.64999961853 2303.4584899992 31553.008934559
27771	1167010 9046 7329 12743 93.5 159 263 161.47265625 732.51872253418 116784.30981445 56501973.205514
27770	1176056 9086 7329 12743 93.5 159 263 486.85000610352 486.85000610352 128041.55160522 62337030.180507
vector 27861  IntersectionExampleScenario.node[47].veinsmobility  posx  ETV
vector 27862  IntersectionExampleScenario.node[47].veinsmobility  posy  ETV
vector 27863  IntersectionExampleScenario.node[47].veinsmobility  speed  ETV
vector 27864  IntersectionExampleScenario.node[47].veinsmobility  acceleration  ETV
vector 27865  IntersectionExampleScenario.node[47].veinsmobility  co2emission  ETV
vector 27868  IntersectionExampleScenario.node[48].veinsmobility  posx  ETV
vector 27869  IntersectionExampleScenario.node[48].veinsmobility  posy  ETV
vector 27870  IntersectionExampleScenario.node[48].veinsmobility  speed  ETV
vector 27875  IntersectionExampleScenario.node[49].veinsmobility  posx  ETV
vector 27876  IntersectionExampleScenario.node[49].veinsmobility  posy  ETV
vector 27871  IntersectionExampleScenario.node[48].veinsmobility  acceleration  ETV
vector 27872  IntersectionExampleScenario.node[48].veinsmobility  co2emission  ETV
vector 27882  IntersectionExampleScenario.node[50].veinsmobility  posx  ETV
vector 27883  IntersectionExampleScenario.node[50].veinsmobility  posy  ETV
vector 27877  IntersectionExampleScenario.node[49].veinsmobility  speed  ETV
vector 27878  IntersectionExampleScenario.node[49].veinsmobility  acceleration  ETV
vector 27879  IntersectionExampleScenario.node[49].veinsmobility  co2emission  ETV
vector 27884  IntersectionExampleScenario.node[50].veinsmobility  speed  ETV
27781	1186577 8333 8353 13452 101.25 169.75 275 0.973 11.200708441096 628.72651903813 2814.7249391462
27780	1194910 7556 8353 13452 101.25 169.75 275 -21.065002441406 4 35.964826583862 854.46373876793
27779	1202466 7806 8320 13452 101 169.75 276 0 15.058722496033 2196.3955450058 30318.636446409
27778	1210272 9625 8287 13452 100.75 169.75 277 238.12384033203 486.85000610352 126216.16390991 58674620.382674
27777	1219897 9627 8287 13452 100.75 169.75 277 483.14999389648 785.82187652588 150050.73020172 83452012.11348
vector 27885  IntersectionExampleScenario.node[50].veinsmobility  acceleration  ETV
vector 27886  IntersectionExampleScenario.node[50].veinsmobility  co2emission  ETV
27788	1229693 7299 9777 13509 113.75 170.5 228 0.973 11.54047740176 578.18795046416 2795.3068552152
27787	1236992 7651 9777 13509 113.75 170.5 228 -3.8792238235474 2.5000009536743 36.98334312439 335.56062844714
27786	1244643 7823 9754 13509 113.5 170.5 229 0 15.5 2208.2303461246 29032.337026117
27785	1252466 8038 9731 13509 113.25 170.5 230 486.85000610352 486.85000610352 111975.50140381 54515273.541888
27784	1260504 7978 9731 13509 113.25 170.5 230 238.40106201172 785.82187652588 119445.2166214 66222850.969458
vector 27889  IntersectionExampleScenario.node[51].veinsmobility  posx  ETV
vector 27890  IntersectionExampleScenario.node[51].veinsmobility  posy  ETV
vector 27891  IntersectionExampleScenario.node[51].veinsmobility  speed  ETV
27802	1268714 5599 10986 13745 131.75 173.75 169 0.973 11.648172402475 562.6057272411 3318.4024614989
27801	1274313 5204 10986 13745 131.75 173.75 169 -3.4073467254639 2.5 38.341367721558 365.87478927314
27800	1279517 5624 10971 13745 131.5 173.75 170 5.6500000953674 15.64999961853 2188.705637455 29772.082516517
27799	1285141 5982 10956 13745 131.25 173.75 171 486.85000610352 734.29725646973 91522.852752686 49943828.987326
27798	1291123 5983 10956 13745 131.25 173.75 171 486.70977783203 785.82187652588 97668.994407654 57538010.83172
vector 27892  IntersectionExampleScenario.node[51].veinsmobility  acceleration  ETV
vector 27893  IntersectionExampleScenario.node[51].veinsmobility  co2emission  ETV
27809	1297275 5370 11320 13954 137.25 176.5 158 0.973 11.648172402475 514.77884933338 2791.2644390734
27808	1302645 4909 11320 13954 137.25 176.5 158 -3.3704528808594 2.5 39.699392318726 279.6060267693
27807	1307554 5248 11303 13954 137 176.5 159 5.6500000953674 15.64999961853 2190.2905702591 31650.701773014
27806	1312802 5594 11286 13954 136.75 176.5 160 235.41986083984 483.14999389648 69181.66885376 30835680.011459
27805	1318396 5567 11286 13954 136.75 176.5 160 184.17810058594 483.2028503418 63647.977996826 27051467.794518
27816	1323963 5231 11634 14238 142.25 180.5 154 0.973 11.90022389248 501.40707783859 2825.7900693835
27815	1329194 4902 11634 14238 142.25 180.5 154 -4.0434036254883 2.5 39.869146347046 251.59063241104
27814	1334096 5123 11619 14238 142 180.5 155 5.6500000953674 16 2204.6493663788 32377.33143684
27813	1339219 5454 11604 14238 141.75 180.5 156 236.89270019531 486.85000610352 67743.898376465 30352738.847583
27812	1344673 5451 11604 14238 141.75 180.5 156 482.98223876953 785.82187652588 89301.387260437 52871865.662957
27823	1350124 5339 11668 14306 142.75 181.5 156 0.973 11.54047740176 464.27310706723 2342.8486446044
27822	1355463 5141 11668 14306 142.75 181.5 156 -3.6779441833496 2.5 37.15309715271 189.08877673318
27821	1360604 5258 11651 14306 142.5 181.5 157 5.6500000953674 15.5 2214.3975419998 31804.500594333
27820	1365862 5531 11634 14306 142.25 181.5 158 483.14999389648 483.14999389648 76337.699035645 36882558.823143
27819	1371393 5494 11634 14306 142.25 181.5 158 184.17810058594 732.67306518555 70875.087158203 35980551.066754
27795	1376887 7676 10435 14527 122.75 185 250 0.973 11.810082123732 632.3944106779 3135.1807284393
27794	1384563 6926 10435 14527 122.75 185 250 -7.7471036911011 4 39.869146347046 487.14203520179
27793	1391489 7264 10416 14527 122.5 185 251 0 15.875 2182.4204804897 31253.828270067
27792	1398753 8812 10397 14527 122.25 185 252 486.63604736328 785.82187652588 137438.93520355 77003411.409043
27791	1407565 8751 10397 14527 122.25 185 252 235.62799072266 483.14999389648 113679.03829956 52350119.580492
vector 27896  IntersectionExampleScenario.node[52].veinsmobility  posx  ETV
vector 27897  IntersectionExampleScenario.node[52].veinsmobility  posy  ETV
vector 27898  IntersectionExampleScenario.node[52].veinsmobility  speed  ETV
vector 27899  IntersectionExampleScenario.node[52].veinsmobility  acceleration  ETV
vector 27900  IntersectionExampleScenario.node[52].veinsmobility  co2emission  ETV
vector 27903  IntersectionExampleScenario.node[53].veinsmobility  posx  ETV
vector 27904  IntersectionExampleScenario.node[53].veinsmobility  posy  ETV
vector 27905  IntersectionExampleScenario.node[53].veinsmobility  speed  ETV
vector 27906  IntersectionExampleScenario.node[53].veinsmobility  acceleration  ETV
vector 27907  IntersectionExampleScenario.node[53].veinsmobility  co2emission  ETV
vector 27910  IntersectionExampleScenario.node[54].veinsmobility  posx  ETV
vector 27911  IntersectionExampleScenario.node[54].veinsmobility  posy  ETV
vector 27912  IntersectionExampleScenario.node[54].veinsmobility  speed  ETV
vector 27913  IntersectionExampleScenario.node[54].veinsmobility  acceleration  ETV
vector 27914  IntersectionExampleScenario.node[54].veinsmobility  co2emission  ETV
vector 27917  IntersectionExampleScenario.node[55].veinsmobility  posx  ETV
vector 27918  IntersectionExampleScenario.node[55].veinsmobility  posy  ETV
vector 27919  IntersectionExampleScenario.node[55].veinsmobility  speed  ETV
27830	1417751 5589 11902 14793 146.5 188.5 169 0.973 11.648172402475 541.23292040219 3124.672573631
27829	1423340 5423 11902 14793 146.5 188.5 169 -3.1693267822266 2.5 37.662351608276 315.07688182102
27828	1428763 5657 11885 14793 146.25 188.5 170 5.6500000953674 15.64999961853 2215.1342720985 30174.635447826
27827	1434420 5970 11868 14793 146 188.5 171 483.14999389648 785.82187652588 97447.887184143 57330229.540947
27826	1440390 5976 11868 14793 146 188.5 171 483.14999389648 734.52377319336 91209.205062866 49657118.973534
vector 27920  IntersectionExampleScenario.node[55].veinsmobility  acceleration  ETV
vector 27921  IntersectionExampleScenario.node[55].veinsmobility  co2emission  ETV
27844	1446535 5106 12542 15242 156 193.5 151 0.973 12.099024792222 484.63932310442 2737.0470039873
27843	1451641 4836 12542 15242 156 193.5 151 -3.3015441894531 2.5 40.038900375366 214.29066054663
27842	1456477 5081 12525 15242 155.75 193.5 152 5.6500000953674 16.27499961853 2222.9441194534 33242.732746531
27841	1461558 5334 12508 15242 155.5 193.5 153 235.4130859375 785.82187652588 79763.297737122 45666266.722443
27840	1466892 5355 12508 15242 155.5 193.5 153 483.14999389648 483.14999389648 73921.949066162 35715389.240132
vector 27924  IntersectionExampleScenario.node[56].veinsmobility  posx  ETV
vector 27925  IntersectionExampleScenario.node[56].veinsmobility  posy  ETV
vector 27926  IntersectionExampleScenario.node[56].veinsmobility  speed  ETV
vector 27931  IntersectionExampleScenario.node[57].veinsmobility  posx  ETV
vector 27932  IntersectionExampleScenario.node[57].veinsmobility  posy  ETV
vector 27927  IntersectionExampleScenario.node[56].veinsmobility  acceleration  ETV
vector 27928  IntersectionExampleScenario.node[56].veinsmobility  co2emission  ETV
vector 27933  IntersectionExampleScenario.node[57].veinsmobility  speed  ETV
vector 27934  IntersectionExampleScenario.node[57].veinsmobility  acceleration  ETV
vector 27935  IntersectionExampleScenario.node[57].veinsmobility  co2emission  ETV
vector 27938  IntersectionExampleScenario.node[58].veinsmobility  posx  ETV
vector 27939  IntersectionExampleScenario.node[58].veinsmobility  posy  ETV
vector 27940  IntersectionExampleScenario.node[58].veinsmobility  speed  ETV
vector 27941  IntersectionExampleScenario.node[58].veinsmobility  acceleration  ETV
vector 27942  IntersectionExampleScenario.node[58].veinsmobility  co2emission  ETV
27858	1473450 5536 12743 15807 159 199.25 162 0.973 11.450879080643 490.87698173172 2519.6710478187
27857	1478986 4932 12743 15807 159 199.25 162 -3.4477005004883 2.5 37.32285118103 227.30308444557
27856	1483918 5424 12724 15807 158.75 199.25 163 5.6500000953674 15.375 2253.2339105606 31996.398272397
27855	1489342 5734 12705 15807 158.5 199.25 164 482.9299621582 798.59687805176 94668.20967865 56632417.882053
27854	1495076 5735 12705 15807 158.5 199.25 164 483.14999389648 731.93385314941 87692.63873291 47856850.065047
vector 27945  IntersectionExampleScenario.node[59].veinsmobility  posx  ETV
vector 27946  IntersectionExampleScenario.node[59].veinsmobility  posy  ETV
vector 27947  IntersectionExampleScenario.node[59].veinsmobility  speed  ETV
vector 27948  IntersectionExampleScenario.node[59].veinsmobility  acceleration  ETV
vector 27949  IntersectionExampleScenario.node[59].veinsmobility  co2emission  ETV
vector 27952  IntersectionExampleScenario.node[60].veinsmobility  posx  ETV
vector 27953  IntersectionExampleScenario.node[60].veinsmobility  posy  ETV
vector 27959  IntersectionExampleScenario.node[61].veinsmobility  posx  ETV
vector 27960  IntersectionExampleScenario.node[61].veinsmobility  posy  ETV
vector 27954  IntersectionExampleScenario.node[60].veinsmobility  speed  ETV
vector 27961  IntersectionExampleScenario.node[61].veinsmobility  speed  ETV
vector 27955  IntersectionExampleScenario.node[60].veinsmobility  acceleration  ETV
vector 27956  IntersectionExampleScenario.node[60].veinsmobility  co2emission  ETV
vector 27962  IntersectionExampleScenario.node[61].veinsmobility  acceleration  ETV
vector 27963  IntersectionExampleScenario.node[61].veinsmobility  co2emission  ETV
vector 27966  IntersectionExampleScenario.node[62].veinsmobility  posx  ETV
vector 27967  IntersectionExampleScenario.node[62].veinsmobility  posy  ETV
vector 27968  IntersectionExampleScenario.node[62].veinsmobility  speed  ETV
vector 27973  IntersectionExampleScenario.node[63].veinsmobility  posx  ETV
vector 27974  IntersectionExampleScenario.node[63].veinsmobility  posy  ETV
vector 27969  IntersectionExampleScenario.node[62].veinsmobility  acceleration  ETV
vector 27970  IntersectionExampleScenario.node[62].veinsmobility  co2emission  ETV
vector 27975  IntersectionExampleScenario.node[63].veinsmobility  speed  ETV
vector 27976  IntersectionExampleScenario.node[63].veinsmobility  acceleration  ETV
vector 27977  IntersectionExampleScenario.node[63].veinsmobility  co2emission  ETV
vector 27980  IntersectionExampleScenario.node[64].veinsmobility  posx  ETV
vector 27981  IntersectionExampleScenario.node[64].veinsmobility  posy  ETV
vector 27982  IntersectionExampleScenario.node[64].veinsmobility  speed  ETV
vector 27983  IntersectionExampleScenario.node[64].veinsmobility  acceleration  ETV
vector 27984  IntersectionExampleScenario.node[64].veinsmobility  co2emission  ETV
27879	1503217 5209 13452 16668 169.75 208 154 0.973 12.26218747632 525.68338815994 3151.7311454308
27878	1508426 4962 13452 16668 169.75 208 154 -3.7528343200684 2.5 41.396924972534 308.48440106635
27877	1513388 5071 13433 16668 169.5 208 155 5.6500000953674 16.5 2178.9213142395 32252.656898312
27876	1518459 5430 13416 16668 169.25 208 156 184.17810058594 483.14999389648 61943.960205078 26297765.118542
27875	1523889 5454 13416 16668 169.25 208 156 486.85000610352 732.0075378418 83695.358062744 45778661.127126
27865	1529343 6168 13176 17263 165.25 213.25 193 0.973 12.717865293408 609.41269723336 3643.5092337073
27864	1535511 5807 13176 17263 165.25 213.25 193 -8.6418628692627 4 43.773473739624 547.7500462972
27863	1541318 5935 13159 17263 165 213.25 194 0 17.125 2183.4017865658 32961.245366103
27862	1547253 6742 13142 17263 164.75 213.25 195 235.50354003906 483.14999389648 86579.566467285 39395556.228275
27861	1553995 6797 13142 17263 164.75 213.25 195 184.17810058594 483.36395263672 80544.798431396 35126760.294567
vector 27987  IntersectionExampleScenario.node[65].veinsmobility  posx  ETV
vector 27988  IntersectionExampleScenario.node[65].veinsmobility  posy  ETV
vector 27989  IntersectionExampleScenario.node[65].veinsmobility  speed  ETV
vector 27990  IntersectionExampleScenario.node[65].veinsmobility  acceleration  ETV
vector 27991  IntersectionExampleScenario.node[65].veinsmobility  co2emission  ETV
27837	1561193 7614 12381 17405 153.5 214.5 245 0.973 11.450879080643 609.12820488771 2876.6021811692
27836	1568807 6739 12381 17405 153.5 214.5 245 -6.998438835144 4 37.492597579956 469.58309252326
27835	1575546 7285 12363 17405 153.25 214.5 246 0 15.375 2215.8640432358 31072.668143386
27834	1582831 8644 12344 17405 153 214.5 247 486.85000610352 486.85000610352 120251.95150757 58544663.325419
27833	1591475 8631 12344 17405 153 214.5 247 235.61877441406 785.82187652588 126653.50565338 69181494.189008
27851	1600106 7625 12705 17593 158.5 216.25 232 0.973 11.463135316371 586.3915586618 2745.2832756631
27850	1607731 7959 12705 17593 158.5 216.25 232 -3.944429397583 2.5000002384186 37.32285118103 344.560413537
27849	1615690 8107 12688 17593 158.25 216.25 233 0 15.392109870911 2203.1633954942 29576.064849439
27848	1623797 8180 12671 17593 158 216.25 234 237.42852783203 486.85000610352 105417.58407593 48595120.853296
27847	1631977 8175 12671 17593 158 216.25 234 483.08734130859 785.82187652588 129182.21404266 73316337.086549
27872	1640152 6207 13416 17693 169.25 217.25 193 0.973 11.648172402475 550.41693190954 2898.5174167545
27871	1646359 6303 13416 17693 169.25 217.25 193 -2.0066986083984 2.5 38.511121749878 306.21510958248
27870	1652662 6594 13401 17693 169 217.25 194 1.9870485067368 15.64999961853 2222.4577194452 29649.623892966
27869	1659256 6825 13386 17693 168.75 217.25 195 486.85000610352 486.85000610352 94935.751190186 46219471.046384
27868	1666081 6805 13386 17693 168.75 217.25 195 235.38146972656 785.82187652588 101852.3265152 57376907.210539
vector 27994  IntersectionExampleScenario.node[66].veinsmobility  posx  ETV
vector 27995  IntersectionExampleScenario.node[66].veinsmobility  posy  ETV
vector 27996  IntersectionExampleScenario.node[66].veinsmobility  speed  ETV
vector 28001  IntersectionExampleScenario.node[67].veinsmobility  posx  ETV
vector 28002  IntersectionExampleScenario.node[67].veinsmobility  posy  ETV
vector 27997  IntersectionExampleScenario.node[66].veinsmobility  acceleration  ETV
vector 27998  IntersectionExampleScenario.node[66].veinsmobility  co2emission  ETV
vector 28003  IntersectionExampleScenario.node[67].veinsmobility  speed  ETV
vector 28004  IntersectionExampleScenario.node[67].veinsmobility  acceleration  ETV
vector 28005  IntersectionExampleScenario.node[67].veinsmobility  co2emission  ETV
vector 28008  IntersectionExampleScenario.node[68].veinsmobility  posx  ETV
vector 28009  IntersectionExampleScenario.node[68].veinsmobility  posy  ETV
vector 28010  IntersectionExampleScenario.node[68].veinsmobility  speed  ETV
vector 28011  IntersectionExampleScenario.node[68].veinsmobility  acceleration  ETV
vector 28012  IntersectionExampleScenario.node[68].veinsmobility  co2emission  ETV
vector 28015  IntersectionExampleScenario.node[69].veinsmobility  posx  ETV
vector 28016  IntersectionExampleScenario.node[69].veinsmobility  posy  ETV
vector 28017  IntersectionExampleScenario.node[69].veinsmobility  speed  ETV
vector 28018  IntersectionExampleScenario.node[69].veinsmobility  acceleration  ETV
vector 28019  IntersectionExampleScenario.node[69].veinsmobility  co2emission  ETV
27900	1674490 5209 14576 18422 185.75 224 154 0.973 12.26218747632 525.68338815994 3151.7311454308
27899	1679699 4959 14576 18422 185.75 224 154 -3.7528038024902 2.5 41.396924972534 308.48435012997
27898	1684658 5076 14559 18422 185.5 224 155 5.6500000953674 16.5 2178.9212684631 32252.655948983
27897	1689734 5456 14542 18422 185.25 224 156 486.85000610352 732.00756835938 83695.360061646 45778663.538987
27896	1695190 5455 14542 18422 185.25 224 156 486.85000610352 785.82187652588 89376.037376404 52906879.348826
vector 28022  IntersectionExampleScenario.node[70].veinsmobility  posx  ETV
vector 28023  IntersectionExampleScenario.node[70].veinsmobility  posy  ETV
vector 28029  IntersectionExampleScenario.node[71].veinsmobility  posx  ETV
vector 28030  IntersectionExampleScenario.node[71].veinsmobility  posy  ETV
vector 28024  IntersectionExampleScenario.node[70].veinsmobility  speed  ETV
vector 28025  IntersectionExampleScenario.node[70].veinsmobility  acceleration  ETV
vector 28026  IntersectionExampleScenario.node[70].veinsmobility  co2emission  ETV
vector 28031  IntersectionExampleScenario.node[71].veinsmobility  speed  ETV
vector 28032  IntersectionExampleScenario.node[71].veinsmobility  acceleration  ETV
vector 28033  IntersectionExampleScenario.node[71].veinsmobility  co2emission  ETV
27907	1701447 5649 14631 18927 186.5 228 167 0.973 11.423249024451 513.90343610027 2677.4933055455
27906	1707096 5136 14631 18927 186.5 228 167 -4.2063789367676 2.5 38.341367721558 260.63863178227
27905	1712232 5581 14612 18927 186.25 228 168 5.6500000953674 15.336415290833 2276.2924294472 32193.688963388
27904	1717813 5905 14593 18927 186 228 169 486.85000610352 733.03547668457 90456.53062439 49358847.326396
27903	1723718 5897 14593 18927 186 228 169 486.85000610352 808.82032012939 98320.737159729 59325870.607765
vector 28036  IntersectionExampleScenario.node[72].veinsmobility  posx  ETV
vector 28037  IntersectionExampleScenario.node[72].veinsmobility  posy  ETV
vector 28043  IntersectionExampleScenario.node[73].veinsmobility  posx  ETV
vector 28044  IntersectionExampleScenario.node[73].veinsmobility  posy  ETV
vector 28038  IntersectionExampleScenario.node[72].veinsmobility  speed  ETV
vector 28039  IntersectionExampleScenario.node[72].veinsmobility  acceleration  ETV
vector 28040  IntersectionExampleScenario.node[72].veinsmobility  co2emission  ETV
vector 28045  IntersectionExampleScenario.node[73].veinsmobility  speed  ETV
vector 28046  IntersectionExampleScenario.node[73].veinsmobility  acceleration  ETV
vector 28047  IntersectionExampleScenario.node[73].veinsmobility  co2emission  ETV
27886	1730417 7559 13471 19261 170 230.5 243 0.973 11.450879080643 605.60642240935 2868.5547830658
27885	1737976 6811 13471 19261 170 230.5 243 -7.3439340591431 4 37.32285118103 471.71975753043
27884	1744787 7244 13452 19261 169.75 230.5 244 0 15.375 2212.9979789257 30954.471572816
27883	1752031 8560 13433 19261 169.5 230.5 245 236.18798828125 785.82187652588 125694.83513641 68719900.162236
27882	1760591 8575 13433 19261 169.5 230.5 245 483.14999389648 483.14999389648 118371.74850464 57191309.567532
27914	1769166 5823 14749 19478 188 232.25 178 0.973 11.648172402475 539.59969322785 2914.7777420825
27913	1774989 5589 14749 19478 188 232.25 178 -2.1222877502441 2.5 38.850629806519 294.02349547595
27912	1780578 5980 14728 19478 187.75 232.25 179 3.7080860137939 15.64999961853 2212.8120617867 29934.304617482
27911	1786558 6285 14707 19478 187.5 232.25 180 483.14999389648 785.82187652588 102077.97507477 59695789.269864
27910	1792843 6281 14707 19478 187.5 232.25 180 483.14999389648 733.92269897461 95363.387374878 51533556.378345
27935	1799124 5260 15359 19688 194.75 234 158 0.973 11.951938326081 565.40489115199 3523.622313527
27934	1804384 5050 15359 19688 194.75 234 158 -3.2001190185547 2.5000038146973 41.227170944214 322.49931213048
27933	1809434 5330 15334 19688 194.5 234 159 5.6500000953674 16.071605682373 2221.6179027557 32083.134310177
27932	1814764 5592 15309 19688 194.25 234 160 235.73205566406 785.82187652588 84019.317451477 48183691.515141
27931	1820356 5600 15309 19688 194.25 234 160 483.14999389648 483.14999389648 77303.999023438 37349426.656348
vector 28050  IntersectionExampleScenario.node[74].veinsmobility  posx  ETV
vector 28051  IntersectionExampleScenario.node[74].veinsmobility  posy  ETV
vector 28052  IntersectionExampleScenario.node[74].veinsmobility  speed  ETV
vector 28057  IntersectionExampleScenario.node[75].veinsmobility  posx  ETV
vector 28058  IntersectionExampleScenario.node[75].veinsmobility  posy  ETV
vector 28053  IntersectionExampleScenario.node[74].veinsmobility  acceleration  ETV
vector 28054  IntersectionExampleScenario.node[74].veinsmobility  co2emission  ETV
vector 28059  IntersectionExampleScenario.node[75].veinsmobility  speed  ETV
vector 28060  IntersectionExampleScenario.node[75].veinsmobility  acceleration  ETV
vector 28061  IntersectionExampleScenario.node[75].veinsmobility  co2emission  ETV
27949	1826758 5273 15942 20304 200.75 239 154 0.973 11.648172402475 472.37478636279 2480.3149868882
27948	1832031 5088 15942 20304 200.75 239 154 -3.6000671386719 2.5 38.511121749878 196.20887372483
27947	1837119 5192 15919 20304 200.5 239 155 5.6500000953674 15.64999961853 2221.7819471359 32492.74467732
27946	1842311 5433 15896 20304 200.25 239 156 235.56420898438 785.82187652588 81259.510002136 46484828.712989
27945	1847744 5460 15896 20304 200.25 239 156 483.14999389648 483.14999389648 75371.399047852 36415690.989939
vector 28064  IntersectionExampleScenario.node[76].veinsmobility  posx  ETV
vector 28065  IntersectionExampleScenario.node[76].veinsmobility  posy  ETV
vector 28071  IntersectionExampleScenario.node[77].veinsmobility  posx  ETV
vector 28072  IntersectionExampleScenario.node[77].veinsmobility  posy  ETV
vector 28066  IntersectionExampleScenario.node[76].veinsmobility  speed  ETV
vector 28073  IntersectionExampleScenario.node[77].veinsmobility  speed  ETV
vector 28067  IntersectionExampleScenario.node[76].veinsmobility  acceleration  ETV
vector 28068  IntersectionExampleScenario.node[76].veinsmobility  co2emission  ETV
vector 28074  IntersectionExampleScenario.node[77].veinsmobility  acceleration  ETV
vector 28075  IntersectionExampleScenario.node[77].veinsmobility  co2emission  ETV
27970	1854006 5279 16395 21024 205.75 244.25 155 0.973 11.36141391502 484.24220194339 2577.3151164915
27969	1859285 4852 16395 21024 205.75 244.25 155 -3.8975276947021 2.5 37.15309715271 275.65489477996
27968	1864137 5144 16368 21024 205.5 244.25 156 5.6500000953674 15.25 2084.393802166 29075.148348121
27967	1869281 5481 16341 21024 205.25 244.25 157 486.84704589844 761.09687805176 88349.888214111 51129307.129428
27966	1874762 5492 16341 21024 205.25 244.25 157 236.34191894531 483.14999389648 67481.152069092 29932000.531744
vector 28078  IntersectionExampleScenario.node[78].veinsmobility  posx  ETV
vector 28079  IntersectionExampleScenario.node[78].veinsmobility  posy  ETV
vector 28080  IntersectionExampleScenario.node[78].veinsmobility  speed  ETV
vector 28081  IntersectionExampleScenario.node[78].veinsmobility  acceleration  ETV
vector 28082  IntersectionExampleScenario.node[78].veinsmobility  co2emission  ETV
vector 28085  IntersectionExampleScenario.node[79].veinsmobility  posx  ETV
vector 28086  IntersectionExampleScenario.node[79].veinsmobility  posy  ETV
vector 28087  IntersectionExampleScenario.node[79].veinsmobility  speed  ETV
vector 28088  IntersectionExampleScenario.node[79].veinsmobility  acceleration  ETV
vector 28089  IntersectionExampleScenario.node[79].veinsmobility  co2emission  ETV
27893	1881056 8893 13764 21338 174 246.5 291 0.973 10.756497587458 630.47649257353 2566.4792230782
27892	1889949 7987 13764 21338 174 246.5 291 -32.359657287598 4 33.758031845093 1384.1255846625
27891	1897936 8316 13745 21338 173.75 246.5 292 0 14.39999961853 2229.6521339417 30011.67970709
27890	1906252 10219 13726 21338 173.5 246.5 293 179.81719970703 734.57159423828 134374.83833313 66181563.812462
27889	1916471 10255 13726 21338 173.5 246.5 293 486.85000610352 486.85000610352 142647.05178833 69447718.033797
27921	1926726 7470 14816 21338 188.75 246.5 232 0.973 11.648172402475 592.36123381132 2928.7748304977
27920	1934196 7739 14816 21338 188.75 246.5 232 -3.9498527050018 2.5000019073486 38.511121749878 343.13413452652
27919	1941935 7944 14793 21338 188.5 246.5 233 0 15.64999961853 2203.9058636632 29262.66555408
27918	1949879 8158 14770 21338 188.25 246.5 234 184.17810058594 486.86669921875 97500.629730225 42586452.153726
27917	1958037 8186 14770 21338 188.25 246.5 234 237.75579833984 486.85000610352 105597.22872925 48738199.83403
27928	1966223 7205 15309 21881 194.25 250.5 226 0.973 11.200708441096 564.27961450022 2666.3359102968
27927	1973428 7326 15309 21881 194.25 250.5 226 -3.9491107463837 2.5 35.455564498901 356.78463696962
27926	1980754 7621 15286 21881 194 250.5 227 0 15.02499961853 2189.2253150381 26964.220814521
27925	1988375 7923 15263 21881 193.75 250.5 228 184.17810058594 483.14999389648 93377.535064697 40143679.429839
27924	1996298 7972 15263 21881 193.75 250.5 228 486.85000610352 734.57807922363 119668.68519592 63909156.131456
vector 28092  IntersectionExampleScenario.node[80].veinsmobility  posx  ETV
vector 28093  IntersectionExampleScenario.node[80].veinsmobility  posy  ETV
vector 28099  IntersectionExampleScenario.node[81].veinsmobility  posx  ETV
vector 28100  IntersectionExampleScenario.node[81].veinsmobility  posy  ETV
vector 28094  IntersectionExampleScenario.node[80].veinsmobility  speed  ETV
vector 28101  IntersectionExampleScenario.node[81].veinsmobility  speed  ETV
vector 28095  IntersectionExampleScenario.node[80].veinsmobility  acceleration  ETV
vector 28096  IntersectionExampleScenario.node[80].veinsmobility  co2emission  ETV
vector 28102  IntersectionExampleScenario.node[81].veinsmobility  acceleration  ETV
vector 28103  IntersectionExampleScenario.node[81].veinsmobility  co2emission  ETV
vector 28106  IntersectionExampleScenario.node[82].veinsmobility  posx  ETV
vector 28107  IntersectionExampleScenario.node[82].veinsmobility  posy  ETV
vector 28108  IntersectionExampleScenario.node[82].veinsmobility  speed  ETV
vector 28113  IntersectionExampleScenario.node[83].veinsmobility  posx  ETV
vector 28114  IntersectionExampleScenario.node[83].veinsmobility  posy  ETV
vector 28109  IntersectionExampleScenario.node[82].veinsmobility  acceleration  ETV
vector 28110  IntersectionExampleScenario.node[82].veinsmobility  co2emission  ETV
vector 28115  IntersectionExampleScenario.node[83].veinsmobility  speed  ETV
vector 28116  IntersectionExampleScenario.node[83].veinsmobility  acceleration  ETV
vector 28117  IntersectionExampleScenario.node[83].veinsmobility  co2emission  ETV
vector 28120  IntersectionExampleScenario.node[84].veinsmobility  posx  ETV
vector 28121  IntersectionExampleScenario.node[84].veinsmobility  posy  ETV
vector 28122  IntersectionExampleScenario.node[84].veinsmobility  speed  ETV
vector 28127  IntersectionExampleScenario.node[85].veinsmobility  posx  ETV
vector 28128  IntersectionExampleScenario.node[85].veinsmobility  posy  ETV
vector 28123  IntersectionExampleScenario.node[84].veinsmobility  acceleration  ETV
vector 28124  IntersectionExampleScenario.node[84].veinsmobility  co2emission  ETV
vector 28129  IntersectionExampleScenario.node[85].veinsmobility  speed  ETV
vector 28130  IntersectionExampleScenario.node[85].veinsmobility  acceleration  ETV
vector 28131  IntersectionExampleScenario.node[85].veinsmobility  co2emission  ETV
vector 28134  IntersectionExampleScenario.node[86].veinsmobility  posx  ETV
vector 28135  IntersectionExampleScenario.node[86].veinsmobility  posy  ETV
vector 28136  IntersectionExampleScenario.node[86].veinsmobility  speed  ETV
vector 28137  IntersectionExampleScenario.node[86].veinsmobility  acceleration  ETV
vector 28138  IntersectionExampleScenario.node[86].veinsmobility  co2emission  ETV
27942	2007077 7467 15638 23139 197.5 258.25 244 0.973 12.553400930962 659.87660519579 3594.1273113262
27941	2014544 6721 15638 23139 197.5 258.25 244 -8.6417188644409 4 43.773473739624 542.62283715238
27940	2021265 7060 15611 23139 197.25 258.25 245 0 16.89999961853 2206.524971962 33456.789335665
27939	2028325 8603 15584 23139 197 258.25 246 235.86157226562 486.85000610352 111947.76306152 51999962.661406
27938	2036928 8595 15584 23139 197 258.25 246 483.14999389648 785.82187652588 133789.27396393 74786575.614816
27963	2045523 6935 16291 23319 204.75 259.25 219 0.973 11.450879080643 578.37346951815 2812.9975306316
27962	2052458 6337 16291 23319 204.75 259.25 219 -8.4870233535767 4 37.15309715271 478.32412368335
27961	2058795 6699 16266 23319 204.5 259.25 220 0 15.375 2183.8080518246 30335.054557731
27960	2065494 7731 16241 23319 204.25 259.25 221 483.14999389648 733.74011230469 115370.29289246 61330512.934078
27959	2073225 7716 16241 23319 204.25 259.25 221 184.17810058594 486.85000610352 92308.3644104 40578389.8729
27998	2080941 5588 17984 23827 220.25 262.25 169 0.973 11.648172402475 527.942669692 2949.5635368497
27997	2086529 5382 17984 23827 220.25 262.25 169 -2.2294883728027 2.5 38.171613693237 279.6352918028
27996	2091911 5661 17959 23827 220 262.25 170 5.6500000953674 15.64999961853 2204.9825153351 30050.909824943
27995	2097572 5980 17934 23827 219.75 262.25 171 483.14999389648 731.98976135254 90973.682571411 49375524.553147
27994	2103552 5957 17934 23827 219.75 262.25 171 184.17810058594 486.85000610352 68425.100189209 29169917.094036
28033	2109509 5225 18635 24187 225.75 264.5 156 0.973 12.280997410461 554.30233849578 3432.4760848258
28032	2114734 4984 18635 24187 225.75 264.5 156 -3.3467845916748 2.5 41.396924972534 334.05822293463
28031	2119718 5171 18602 24187 225.5 264.5 157 5.6500000953674 16.525897979736 2192.0246653557 32202.336318604
28030	2124889 5526 18569 24187 225.25 264.5 158 486.85000610352 734.90957641602 84876.047836304 46500783.317557
28029	2130415 5524 18569 24187 225.25 264.5 158 486.85000610352 785.82187652588 90426.069084167 53463141.468232
vector 28141  IntersectionExampleScenario.node[87].veinsmobility  posx  ETV
vector 28142  IntersectionExampleScenario.node[87].veinsmobility  posy  ETV
vector 28143  IntersectionExampleScenario.node[87].veinsmobility  speed  ETV
vector 28144  IntersectionExampleScenario.node[87].veinsmobility  acceleration  ETV
vector 28145  IntersectionExampleScenario.node[87].veinsmobility  co2emission  ETV
28047	2136340 5243 19061 24613 229 267.25 154 0.973 11.990504229548 488.32561403646 2668.2367515915
28046	2141583 4936 19061 24613 229 267.25 154 -3.4799919128418 2.5 39.869146347046 207.0424771974
28045	2146519 5170 19026 24613 228.75 267.25 155 5.6500000953674 16.125 2258.4971065521 33635.858175085
28044	2151689 5460 18991 24613 228.5 267.25 156 486.85000610352 486.85000610352 75948.600952148 36975576.837107
28043	2157149 5406 18991 24613 228.5 267.25 156 237.72625732422 797.07032012939 82372.167938232 47790956.005024
vector 28148  IntersectionExampleScenario.node[88].veinsmobility  posx  ETV
vector 28149  IntersectionExampleScenario.node[88].veinsmobility  posy  ETV
vector 28150  IntersectionExampleScenario.node[88].veinsmobility  speed  ETV
vector 28151  IntersectionExampleScenario.node[88].veinsmobility  acceleration  ETV
vector 28152  IntersectionExampleScenario.node[88].veinsmobility  co2emission  ETV
vector 28155  IntersectionExampleScenario.node[89].veinsmobility  posx  ETV
vector 28156  IntersectionExampleScenario.node[89].veinsmobility  posy  ETV
vector 28157  IntersectionExampleScenario.node[89].veinsmobility  speed  ETV
vector 28158  IntersectionExampleScenario.node[89].veinsmobility  acceleration  ETV
vector 28159  IntersectionExampleScenario.node[89].veinsmobility  co2emission  ETV
27956	2163357 8695 16291 25920 204.75 275.75 285 0.973 11.00486315618 650.37912384582 2729.8703408291
27955	2172052 7977 16291 25920 204.75 275.75 285 -8.5455722808838 4 36.134572982788 495.36380622937
27954	2180029 8238 16266 25920 204.5 275.75 286 0 14.908670425415 2222.666087389 29812.110840238
27953	2188267 10023 16241 25920 204.25 275.75 287 483.14999389648 792.02188110352 156656.51603699 87993224.932195
27952	2198290 10040 16241 25920 204.25 275.75 287 483.14999389648 732.44580078125 147320.97770691 76799776.046054
27977	2208330 8605 16453 26065 206.25 276.75 283 0.973 11.445114413729 698.75211715145 3193.2444210007
27976	2216935 8130 16453 26065 206.25 276.75 283 -4.5 2.5 42.766813278198 494.54526295456
27975	2225065 8329 16424 26065 206 276.75 284 0 16.341703414917 2291.4309981465 32543.257913605
27974	2233394 9965 16395 26065 205.75 276.75 285 482.99896240234 809.47784423828 156904.70327759 88998187.214625
27973	2243359 9970 16395 26065 205.75 276.75 285 483.14999389648 731.59191894531 145659.31987 75535883.379156
27984	2253329 9381 16544 26441 207 279.5 291 0.973 11.810082123732 685.70035988547 2980.3938601858
27983	2262710 9342 16544 26441 207 279.5 291 -4.5 2.5000009536743 41.128246307373 436.1453069699
27982	2272052 9433 16513 26441 206.75 279.5 292 0 15.875 2319.4519473417 32137.028457645
27981	2281485 10231 16482 26441 206.5 279.5 293 486.8405456543 820.6483001709 163355.79891968 93903401.751785
27980	2291716 10252 16482 26441 206.5 279.5 293 237.93170166016 483.14999389648 133646.93008423 62034816.006005
vector 28162  IntersectionExampleScenario.node[90].veinsmobility  posx  ETV
vector 28163  IntersectionExampleScenario.node[90].veinsmobility  posy  ETV
vector 28164  IntersectionExampleScenario.node[90].veinsmobility  speed  ETV
vector 28165  IntersectionExampleScenario.node[90].veinsmobility  acceleration  ETV
vector 28166  IntersectionExampleScenario.node[90].veinsmobility  co2emission  ETV
27991	2302369 8838 17348 26770 214 282 273 0.973 11.450879080643 631.11352288678 2869.2555411785
27990	2311207 9302 17348 26770 214 282 273 -3.8896946907043 2.5000009536743 37.32285118103 342.47858989521
27989	2320509 9280 17319 26770 213.75 282 274 0 15.375 2229.6573851286 29037.922406136
27988	2329789 9607 17290 26770 213.5 282 275 483.14999389648 791.73857879639 152126.08487701 86226807.261178
27987	2339396 9619 17290 26770 213.5 282 275 483.14999389648 732.6863861084 141375.11682129 73831819.399768
vector 28169  IntersectionExampleScenario.node[91].veinsmobility  posx  ETV
vector 28170  IntersectionExampleScenario.node[91].veinsmobility  posy  ETV
vector 28176  IntersectionExampleScenario.node[92].veinsmobility  posx  ETV
vector 28177  IntersectionExampleScenario.node[92].veinsmobility  posy  ETV
vector 28171  IntersectionExampleScenario.node[91].veinsmobility  speed  ETV
vector 28172  IntersectionExampleScenario.node[91].veinsmobility  acceleration  ETV
vector 28173  IntersectionExampleScenario.node[91].veinsmobility  co2emission  ETV
vector 28178  IntersectionExampleScenario.node[92].veinsmobility  speed  ETV
vector 28179  IntersectionExampleScenario.node[92].veinsmobility  acceleration  ETV
vector 28180  IntersectionExampleScenario.node[92].veinsmobility  co2emission  ETV
28005	2349817 8298 18038 27154 220.75 284.75 257 0.973 11.36141391502 623.99552492206 2956.4117877189
28004	2358115 8449 18038 27154 220.75 284.75 257 -3.8240284919739 2.5 38.341367721558 380.00788867129
28003	2366564 8703 18011 27154 220.5 284.75 258 0 15.285340309143 2187.7057152279 28220.912847277
28002	2375267 9048 17984 27154 220.25 284.75 259 486.85000610352 785.82187652588 144173.09597015 82130153.779875
28001	2384315 9064 17984 27154 220.25 284.75 259 235.98406982422 483.14999389648 116885.01531982 53840902.71624
28012	2393379 8777 18123 27524 221.5 287.5 265 0.973 11.00486315618 628.65400496046 2777.713593974
28011	2402156 8897 18123 27524 221.5 287.5 265 -4.5 2.5 34.437047958374 443.61666523914
28010	2411053 9022 18094 27524 221.25 287.5 266 0 14.75 2302.2240202948 29120.139840699
28009	2420075 9325 18065 27524 221 287.5 267 483.14999389648 808.82032012939 150899.22998047 87665457.483286
28008	2429400 9332 18065 27524 221 287.5 267 483.14999389648 733.56874084473 137979.18392944 72503050.03353
28019	2438732 8209 18243 27823 222.5 290 271 0.973 11.90022389248 652.38440992329 3171.6543616542
28018	2446941 7461 18243 27823 222.5 290 271 -7.26416015625 4 39.699392318726 488.74838165171
28017	2454402 7763 18212 27823 222.25 290 272 0 16 2217.2996735573 32035.834915318
28016	2462165 9524 18181 27823 222 290 273 184.17810058594 734.53973388672 125170.19442749 61531156.735057
28015	2471689 9553 18181 27823 222 290 273 486.85000610352 486.85000610352 132910.05166626 64707259.464937
28026	2481242 8484 18602 27958 225.5 291.25 264 0.973 11.990504229548 673.97404844481 3288.505246
28025	2489726 8335 18602 27958 225.5 291.25 264 -4.5 2.5 42.585195541382 458.84466175226
28024	2498061 8564 18569 27958 225.25 291.25 265 0 16.363237380981 2265.358761861 33435.668296239
28023	2506625 9242 18538 27958 225 291.25 266 171.40313720703 732.6244354248 119853.6676178 58263487.658428
28022	2515867 9309 18538 27958 225 291.25 266 486.85000610352 486.85000610352 129502.10162354 63048098.965836
28075	2525176 6663 20709 28229 242 294 209 0.96333723109819 12.099024792222 581.90203166374 3155.6865806258
28074	2531839 6896 20709 28229 242 294 209 -3.9133274555206 2.5 40.208654403687 345.00289348533
28073	2538735 7079 20672 28229 241.75 294 210 0 16.27499961853 2210.642812822 29843.156926071
28072	2545814 7354 20635 28229 241.5 294 211 184.17810058594 486.85000610352 86629.205932617 37426287.832849
28071	2553168 7380 20635 28229 241.5 294 211 236.85406494141 486.85000610352 94562.257873535 43422961.772028
vector 28183  IntersectionExampleScenario.node[93].veinsmobility  posx  ETV
vector 28184  IntersectionExampleScenario.node[93].veinsmobility  posy  ETV
vector 28185  IntersectionExampleScenario.node[93].veinsmobility  speed  ETV
vector 28190  IntersectionExampleScenario.node[94].veinsmobility  posx  ETV
vector 28191  IntersectionExampleScenario.node[94].veinsmobility  posy  ETV
vector 28186  IntersectionExampleScenario.node[93].veinsmobility  acceleration  ETV
vector 28187  IntersectionExampleScenario.node[93].veinsmobility  co2emission  ETV
vector 28192  IntersectionExampleScenario.node[94].veinsmobility  speed  ETV
vector 28193  IntersectionExampleScenario.node[94].veinsmobility  acceleration  ETV
vector 28194  IntersectionExampleScenario.node[94].veinsmobility  co2emission  ETV
28082	2561350 6751 21127 28452 245 296.5 207 0.973 11.648172402475 578.12669806814 2959.5136029829
28081	2568101 6801 21127 28452 245 296.5 207 -4.5 2.5000009536743 38.171613693237 428.24795474205
28080	2574902 7054 21092 28452 244.75 296.5 208 1.4111316204071 15.64999961853 2269.6391898394 29968.231066642
28079	2581956 7286 21057 28452 244.5 296.5 209 171.40313720703 733.80543518066 92149.817840576 45093857.235383
28078	2589242 7315 21057 28452 244.5 296.5 209 486.85000610352 486.85003662109 101751.65130615 49537792.0743
vector 28197  IntersectionExampleScenario.node[95].veinsmobility  posx  ETV
vector 28198  IntersectionExampleScenario.node[95].veinsmobility  posy  ETV
vector 28199  IntersectionExampleScenario.node[95].veinsmobility  speed  ETV
vector 28200  IntersectionExampleScenario.node[95].veinsmobility  acceleration  ETV
vector 28201  IntersectionExampleScenario.node[95].veinsmobility  co2emission  ETV
28103	2596958 6159 22086 28762 252 299.5 191 0.973 11.200708441096 523.42198660704 2612.5035580273
28102	2603117 6095 22086 28762 252 299.5 191 -4.5 2.5 36.643835067749 325.916313203
28101	2609212 6496 22050 28762 251.75 299.5 192 1.6763043403625 15.02499961853 2218.6632184982 28721.722628528
28100	2615708 6729 22013 28762 251.5 299.5 193 184.17810058594 733.65176391602 86080.092819214 42659344.108366
28099	2622437 6755 22013 28762 251.5 299.5 193 486.85000610352 486.85000610352 93962.051177979 45745425.189498
28110	2629192 6523 22195 29033 252.75 302 198 0.973 11.810082123732 594.72723033705 3148.9530450187
28109	2635715 6467 22195 29033 252.75 302 198 -11.594101905823 2.5 39.699392318726 558.32326167206
28108	2642182 6648 22158 29033 252.5 302 199 0.89646506309509 15.875 2284.8759713173 30396.101065283
[...]
31230	18924692 5755 159488 163278 1736.25 1777 164 5.6500000953674 15.875 2249.3539276123 32364.119820385
31229	18930447 6078 159465 163278 1736 1777 165 169.95465087891 483.14999389648 64751.501678467 27360588.993362
31228	18936525 6092 159465 163278 1736 1777 165 486.85000610352 734.83799743652 88412.824966431 48310187.589123
vector 31319  IntersectionExampleScenario.node[541].veinsmobility  posx  ETV
vector 31320  IntersectionExampleScenario.node[541].veinsmobility  posy  ETV
vector 31321  IntersectionExampleScenario.node[541].veinsmobility  speed  ETV
vector 31322  IntersectionExampleScenario.node[541].veinsmobility  acceleration  ETV
vector 31323  IntersectionExampleScenario.node[541].veinsmobility  co2emission  ETV
vector 31326  IntersectionExampleScenario.node[542].veinsmobility  posx  ETV
vector 31327  IntersectionExampleScenario.node[542].veinsmobility  posy  ETV
vector 31328  IntersectionExampleScenario.node[542].veinsmobility  speed  ETV
vector 31329  IntersectionExampleScenario.node[542].veinsmobility  acceleration  ETV
vector 31330  IntersectionExampleScenario.node[542].veinsmobility  co2emission  ETV
vector 31333  IntersectionExampleScenario.node[543].veinsmobility  posx  ETV
vector 31334  IntersectionExampleScenario.node[543].veinsmobility  posy  ETV
vector 31335  IntersectionExampleScenario.node[543].veinsmobility  speed  ETV
31246	18943664 5833 159898 163646 1741 1782 165 0.973 11.36141391502 518.6668333156 2886.8691229508
31245	18949497 5753 159898 163646 1741 1782 165 -3.4669208526611 2.5 37.15309715271 285.51722978889
31244	18955250 5822 159875 163646 1740.75 1782 166 5.6500000953674 15.439381599426 2223.3084654808 31017.376999052
31243	18961072 6156 159852 163646 1740.5 1782 167 174.58807373047 483.20690917969 65784.899230957 27824365.935849
31242	18967228 6173 159852 163646 1740.5 1782 167 486.85000610352 733.72624206543 89682.441070557 49116195.535726
vector 31336  IntersectionExampleScenario.node[543].veinsmobility  acceleration  ETV
vector 31337  IntersectionExampleScenario.node[543].veinsmobility  co2emission  ETV
31267	18973572 6004 160154 163877 1743.5 1784.75 166 0.973 11.200708441096 466.44399213219 2237.0146680402
31266	18979576 5728 160154 163877 1743.5 1784.75 166 -3.7433586120605 2.5 35.285810470581 176.95017983672
31265	18985304 5959 160125 163877 1743.25 1784.75 167 5.6500000953674 15.02499961853 2301.9811439514 32222.259884223
31264	18991263 6206 160096 163877 1743 1784.75 168 163.78936767578 734.45791625977 73972.692169189 37374960.304387
31263	18997469 6216 160096 163877 1743 1784.75 168 486.85000610352 486.85000610352 81790.801025391 39819851.978423
vector 31340  IntersectionExampleScenario.node[544].veinsmobility  posx  ETV
vector 31341  IntersectionExampleScenario.node[544].veinsmobility  posy  ETV
vector 31342  IntersectionExampleScenario.node[544].veinsmobility  speed  ETV
vector 31343  IntersectionExampleScenario.node[544].veinsmobility  acceleration  ETV
vector 31344  IntersectionExampleScenario.node[544].veinsmobility  co2emission  ETV
31204	19004091 8249 158732 164291 1727.25 1789.5 250 0.973 11.200708441096 599.39540271611 2712.2441783224
31203	19012340 7485 158732 164291 1727.25 1789.5 250 -7.5492105484009 4 35.964826583862 464.95118037559
31202	19019825 7889 158705 164291 1727 1789.5 251 0 15.02499961853 2180.5861537457 29808.471098454
31201	19027714 9322 158678 164291 1726.75 1789.5 252 483.14999389648 733.02844238281 130468.820755 68700057.779585
31200	19037036 9293 158678 164291 1726.75 1789.5 252 184.17810058594 486.85000610352 106802.00817871 47377954.427721
vector 31347  IntersectionExampleScenario.node[545].veinsmobility  posx  ETV
vector 31348  IntersectionExampleScenario.node[545].veinsmobility  posy  ETV
31197	19046485 8480 158578 164333 1725.75 1790 258 0.973 11.200708441096 606.46012800753 2715.930188421
31196	19054965 7745 158578 164333 1725.75 1790 258 -6.8640689849854 4 35.625318527222 447.68975026733
31195	19062710 8113 158553 164333 1725.5 1790 259 0 15.02499961853 2205.7956194878 30004.684011173
31194	19070823 9618 158528 164333 1725.25 1790 260 235.62408447266 486.85000610352 117719.77484131 54482705.332531
31193	19080441 9613 158528 164333 1725.25 1790 260 483.14999389648 785.82187652588 141641.91828156 79300185.668235
vector 31349  IntersectionExampleScenario.node[545].veinsmobility  speed  ETV
vector 31350  IntersectionExampleScenario.node[545].veinsmobility  acceleration  ETV
vector 31351  IntersectionExampleScenario.node[545].veinsmobility  co2emission  ETV
31225	19090304 7456 159465 164425 1736 1791 221 0.973 12.099024792222 593.62648320823 3011.2705688145
31224	19097760 8060 159465 164425 1736 1791 221 -3.6982848644257 2.5000019073486 41.227170944214 332.68317395033
31223	19105820 7998 159444 164425 1735.75 1791 222 0 16.27499961853 2200.8574092183 30036.76360919
31222	19113818 8244 159423 164425 1735.5 1791 223 483.14999389648 731.65229797363 115746.24847412 61108195.173511
31221	19122062 8212 159423 164425 1735.5 1791 223 184.17810058594 487.03482055664 92642.515197754 40397738.401412
31253	19130274 6684 160042 164425 1742.5 1791 195 0.973 11.200708441096 533.44909530917 2632.9821454348
31252	19136958 6803 160042 164425 1742.5 1791 195 -2.0914916992188 2.5 35.964826583862 290.20238679961
31251	19143761 7110 160015 164425 1742.25 1791 196 1.6478219032288 15.02499961853 2221.7218697071 28982.863810715
31250	19150871 7287 159990 164425 1742 1791 197 486.85000610352 486.85000610352 95909.451202393 46693516.90327
31249	19158158 7268 159990 164425 1742 1791 197 235.10015869141 785.82187652588 102461.23522186 57597914.72027
vector 31354  IntersectionExampleScenario.node[546].veinsmobility  posx  ETV
vector 31355  IntersectionExampleScenario.node[546].veinsmobility  posy  ETV
vector 31356  IntersectionExampleScenario.node[546].veinsmobility  speed  ETV
vector 31357  IntersectionExampleScenario.node[546].veinsmobility  acceleration  ETV
vector 31358  IntersectionExampleScenario.node[546].veinsmobility  co2emission  ETV
vector 31361  IntersectionExampleScenario.node[547].veinsmobility  posx  ETV
vector 31362  IntersectionExampleScenario.node[547].veinsmobility  posy  ETV
vector 31363  IntersectionExampleScenario.node[547].veinsmobility  speed  ETV
vector 31364  IntersectionExampleScenario.node[547].veinsmobility  acceleration  ETV
vector 31365  IntersectionExampleScenario.node[547].veinsmobility  co2emission  ETV
31274	19166238 5695 161121 164626 1753 1793 161 0.97223939240464 11.648172402475 514.38431720829 2882.9061139468
31273	19171933 5469 161121 164626 1753 1793 161 -3.385669708252 2.5 38.680875778198 248.85657009713
31272	19177402 5760 161096 164626 1752.75 1793 162 5.6500000953674 15.64999961853 2207.4914684296 30925.260765416
31271	19183162 6030 161071 164626 1752.5 1793 163 486.85000610352 486.85000610352 79356.550994873 38634737.336208
31270	19189192 6027 161071 164626 1752.5 1793 163 238.86712646484 785.82187652588 85480.829048157 48924111.135693
vector 31368  IntersectionExampleScenario.node[548].veinsmobility  posx  ETV
vector 31369  IntersectionExampleScenario.node[548].veinsmobility  posy  ETV
31239	19195375 7466 159683 164651 1738.5 1793.25 220 0.973 11.648172402475 594.19993723195 2938.9351276091
31238	19202841 7838 159683 164651 1738.5 1793.25 220 -4.5 2.5 39.869146347046 362.14865482749
31237	19210679 7934 159661 164651 1738.25 1793.25 221 1.1500293016434 15.678214073181 2267.601631999 30065.09950889
31236	19218613 8193 159638 164651 1738 1793.25 222 483.14999389648 732.73492431641 115448.46502686 61095947.278593
31235	19226806 8189 159638 164651 1738 1793.25 222 168.58435058594 486.87384033203 89930.276062012 38550441.630215
vector 31370  IntersectionExampleScenario.node[548].veinsmobility  speed  ETV
vector 31371  IntersectionExampleScenario.node[548].veinsmobility  acceleration  ETV
vector 31372  IntersectionExampleScenario.node[548].veinsmobility  co2emission  ETV
vector 31375  IntersectionExampleScenario.node[549].veinsmobility  posx  ETV
vector 31376  IntersectionExampleScenario.node[549].veinsmobility  posy  ETV
vector 31377  IntersectionExampleScenario.node[549].veinsmobility  speed  ETV
vector 31378  IntersectionExampleScenario.node[549].veinsmobility  acceleration  ETV
vector 31379  IntersectionExampleScenario.node[549].veinsmobility  co2emission  ETV
vector 31382  IntersectionExampleScenario.node[550].veinsmobility  posx  ETV
vector 31383  IntersectionExampleScenario.node[550].veinsmobility  posy  ETV
vector 31384  IntersectionExampleScenario.node[550].veinsmobility  speed  ETV
vector 31389  IntersectionExampleScenario.node[551].veinsmobility  posx  ETV
vector 31390  IntersectionExampleScenario.node[551].veinsmobility  posy  ETV
vector 31385  IntersectionExampleScenario.node[550].veinsmobility  acceleration  ETV
vector 31386  IntersectionExampleScenario.node[550].veinsmobility  co2emission  ETV
vector 31391  IntersectionExampleScenario.node[551].veinsmobility  speed  ETV
vector 31396  IntersectionExampleScenario.node[552].veinsmobility  posx  ETV
vector 31397  IntersectionExampleScenario.node[552].veinsmobility  posy  ETV
vector 31392  IntersectionExampleScenario.node[551].veinsmobility  acceleration  ETV
vector 31393  IntersectionExampleScenario.node[551].veinsmobility  co2emission  ETV
vector 31398  IntersectionExampleScenario.node[552].veinsmobility  speed  ETV
vector 31399  IntersectionExampleScenario.node[552].veinsmobility  acceleration  ETV
vector 31400  IntersectionExampleScenario.node[552].veinsmobility  co2emission  ETV
31260	19236869 7474 160069 165495 1742.75 1800 230 0.973 11.450879080643 567.21214720908 2776.0188552883
31259	19244343 6888 160069 165495 1742.75 1800 230 -7.3439340591431 4 37.322896957397 471.71975752999
31258	19251231 7125 160042 165495 1742.5 1800 231 0 15.375 1883.4222753048 26017.192281124
31257	19258356 8570 160015 165495 1742.25 1800 232 318.58190917969 785.82187652588 124119.16316986 69273147.479108
31256	19266926 8584 160015 165495 1742.25 1800 232 483.14999389648 483.14999389648 112090.79858398 54156668.651704
31281	19275510 5361 161556 165495 1757.5 1800 171 0.973 10.756497587458 329.76028436446 1274.7726416692
31280	19280871 4876 161556 165495 1757.5 1800 171 -9.268856048584 2.5 -22.60000038147 327.57020127512
31279	19285747 5215 161531 165495 1757.25 1800 172 0 14.39999961853 1145.6634116173 15283.529772602
31278	19290962 6376 161506 165495 1757 1800 173 184.17810058594 471.60000610352 68223.507446289 28582202.177083
31277	19297338 6399 161506 165495 1757 1800 173 486.85000610352 486.85000610352 84225.051055908 41004966.620638
31288	19303737 4444 162477 165495 1768.25 1800 128 0.973 12.099024792222 492.74068608703 3456.266544582
31287	19308181 4229 162477 165495 1768.25 1800 128 -3.9310150146484 2.5 40.044649124146 361.50416560185
31286	19312410 4471 162455 165495 1768 1800 129 5.6500000953674 16.27499961853 1696.7212972641 23366.113095822
31285	19316881 4785 162432 165495 1767.75 1800 130 483.14999389648 785.82187652588 77150.910346985 47222397.465574
31284	19321666 4808 162432 165495 1767.75 1800 130 483.14999389648 605.36883544922 64863.52645874 32495773.199382
31295	19326474 4095 162477 165495 1768.25 1800 128 0.973 12.099024792222 296.05403903155 1568.8804045342
31294	19330569 4725 162477 165495 1768.25 1800 128 -3.8563747406006 2.5 -22.482048600912 203.01678381592
31293	19335294 4742 162455 165495 1768 1800 129 0 16.27499961853 1119.6070466302 14393.072368155
31292	19340036 4781 162432 165495 1767.75 1800 130 184.17810058594 464.30416870117 47789.103637695 18764571.827274
31291	19344817 4809 162432 165495 1767.75 1800 130 486.85000610352 486.85000610352 63290.500793457 30812980.697589
31302	19349626 3924 162649 165495 1770.25 1800 120 0.97223939240464 11.648172402475 294.67565663041 1471.6601177652
31301	19353550 3815 162649 165495 1770.25 1800 120 -7.1630640029907 2.5 -22.60000038147 315.45572319872
31300	19357365 3998 162626 165495 1770 1800 121 0 15.64999961853 1147.0843374729 16135.147662775
31299	19361363 4513 162603 165495 1769.75 1800 122 486.85000610352 486.85000610352 59395.700744629 28916797.270045
31298	19365876 4504 162603 165495 1769.75 1800 122 498.39999389648 785.82187652588 73600.442237854 45672439.583496
31309	19370380 3820 162699 165495 1770.75 1800 118 0.973 12.099024792222 289.00399548986 1564.913805661
31308	19374200 4382 162699 165495 1770.75 1800 118 -4.4133186340332 2.5 -15.574385643005 235.08890046417
31307	19378582 4376 162674 165495 1770.5 1800 119 1.7564036846161 16.27499961853 1134.0928605795 14368.131405832
31306	19382958 4415 162649 165495 1770.25 1800 120 168.58435058594 451.88739013672 41172.456085205 15208782.726493
31305	19387373 4440 162649 165495 1770.25 1800 120 486.85000610352 486.85000610352 58422.000732422 28442751.413159
31316	19391813 3822 162753 165495 1771.25 1800 116 0.973 11.476932973636 279.43636508048 1379.2106994938
31315	19395635 4293 162753 165495 1771.25 1800 116 -4.5 2.5 -14.780896186829 223.08612169227
31314	19399928 4309 162726 165495 1771 1800 117 1.8849041461945 15.411367416382 1166.6309382915 14228.740575554
31313	19404237 4355 162699 165495 1770.75 1800 118 152.63751220703 443.67880249023 37690.140655518 13201552.13968
31312	19408592 4365 162699 165495 1770.75 1800 118 486.85000610352 486.85003662109 57448.300750732 27968705.585988
31323	19412957 2859 163363 165495 1778.25 1800 88 0.973 11.200708441096 233.38661553753 1253.3291727184
31322	19415816 3179 163363 165495 1778.25 1800 88 -3.2712554931641 2.5 -7.9588270187378 164.9122412256
31321	19418995 3277 163346 165495 1778 1800 89 3.660293340683 15.242050170898 1024.3311257362 12906.795346077
31320	19422272 3324 163329 165495 1777.75 1800 90 179.21044921875 434.12365722656 28373.83303833 9575009.4340018
31319	19425596 3329 163329 165495 1777.75 1800 90 486.85000610352 486.85000610352 43816.500549316 21332063.559869
31330	19428925 2869 163435 165495 1779.25 1800 84 0.973 10.756497587458 225.52384858992 1129.9754323389
31329	19431794 3024 163435 165495 1779.25 1800 84 -2.0503997802734 2.5 0.56784057617188 140.92100134375
31328	19434818 3129 163416 165495 1779 1800 85 5.6500000953674 14.39999961853 1022.0003695488 12925.815014968
31327	19437947 3181 163397 165495 1778.75 1800 86 486.85000610352 486.85000610352 41869.100524902 20383971.846097
31326	19441128 3170 163397 165495 1778.75 1800 86 532.16625976562 785.82187652588 56563.884490967 37775228.925079
31337	19444298 2524 163667 165495 1782.25 1800 72 0.973 11.200708441096 223.41069978865 1245.5258367826
31336	19446822 2559 163667 165495 1782.25 1800 72 -2.8948593139648 2.5 15.913206100464 134.85971949497
31335	19449381 2684 163646 165495 1782 1800 73 5.6500000953674 15.02499961853 941.10599136353 12527.271892978
31334	19452065 2732 163625 165495 1781.75 1800 74 175.49426269531 407.71728515625 21274.333618164 6514918.6866769
31333	19454797 2737 163625 165495 1781.75 1800 74 486.85000610352 486.85000610352 36026.90045166 17539696.704781
31344	19457534 1806 164154 165495 1788 1800 49 0.98553816276338 11.491837017457 195.21450640633 1232.8095697441
31343	19459340 1754 164154 165495 1788 1800 49 -0.32413864135742 2.5 37.37681388855 94.818241301899
31342	19461094 1831 164131 165495 1787.75 1800 50 5.6500000953674 15.4321641922 675.86716556549 9514.3671631612
31341	19462925 1870 164108 165495 1787.5 1800 51 184.17810058594 348.28314208984 13099.774108887 3500052.6848674
31340	19464795 1886 164108 165495 1787.5 1800 51 486.85000610352 486.85000610352 24829.350311279 12088169.350593
31351	19466681 1406 164379 165495 1790.5 1800 39 0.973 11.444088365602 182.70683531461 1297.5068436734
31350	19468087 1284 164379 165495 1790.5 1800 39 -3.5137252807617 2.5 39.731447219849 115.39956481816
31349	19469371 1471 164356 165495 1790.25 1800 40 5.6500000953674 15.827926635742 456.69355773926 5765.0108422074
31348	19470842 1504 164333 165495 1790 1800 41 168.58435058594 277.66400146484 8698.0133666992 1890183.8907232
31347	19472346 1515 164333 165495 1790 1800 41 486.85000610352 486.85000610352 19960.850250244 9717940.0661627
31358	19473861 1233 164498 165495 1791.75 1800 34 0.973 11.648172402475 167.1971739233 1251.9418659802
31357	19475094 1129 164498 165495 1791.75 1800 34 -0.45709991455078 2.5 38.181913375854 100.47755061553
31356	19476223 1280 164473 165495 1791.5 1800 35 5.6500000953674 15.64999961853 455.88578224182 6284.0954808824
31355	19477503 1321 164448 165495 1791.25 1800 36 197.1123046875 306.32580566406 8767.4151611328 2178474.1718863
31354	19478824 1332 164448 165495 1791.25 1800 36 486.85000610352 486.85000610352 17526.600219727 8532825.4239478
31365	19480156 1133 164576 165495 1792.5 1800 31 0.973 11.648172402475 161.71635942574 1241.1569991556
31364	19481289 1008 164576 165495 1792.5 1800 31 -0.37222290039062 2.5 38.531011581421 100.31661727126
31363	19482297 1174 164550 165495 1792.25 1800 32 5.6500000953674 15.64999961853 411.31841564178 5622.5575892283
31362	19483471 1219 164523 165495 1792 1800 33 483.14999389648 483.14999389648 15943.949798584 7703319.2478717
31361	19484690 1202 164523 165495 1792 1800 33 184.17810058594 281.87768554688 7428.9048461914 1704048.8897237
31372	19485892 953 164705 165495 1793.75 1800 26 1.5055861647628 11.482637313101 149.04413864697 1145.8856179623
31371	19486845 828 164705 165495 1793.75 1800 26 -0.18398666381836 2.5 38.415037155151 94.526715270335
31370	19487673 993 164678 165495 1793.5 1800 27 5.6500000953674 15.419327735901 324.61353397369 4175.4777219212
31369	19488666 1032 164651 165495 1793.25 1800 28 162.4892578125 238.54565429688 5421.2438964844 1065510.3466017
31368	19489698 1036 164651 165495 1793.25 1800 28 486.85000610352 486.85000610352 13631.800170898 6636641.9964038
31379	19490734 847 164790 165495 1794.5 1800 23 2.0177365752497 11.648172402475 153.73055243772 1245.7374109356
31378	19491581 682 164790 165495 1794.5 1800 23 -0.060653686523438 2.5 40.99001121521 100.32630166319
31377	19492263 876 164761 165495 1794.25 1800 24 5.6500000953674 15.93256855011 292.07972621918 3848.6791693689
31376	19493139 923 164732 165495 1794 1800 25 483.14999389648 483.14999389648 12078.749847412 5835847.9150543
31375	19494062 891 164732 165495 1794 1800 25 166.078125 233.76019287109 4830.1285400391 944506.47310773
31386	19494953 441 165113 165495 1797.25 1800 12 5.2162187258585 9.8772939209111 90.329754123875 705.60800469607
31385	19495394 312 165113 165495 1797.25 1800 12 2.4999980926514 2.5 29.999998092651 74.99999046326
31384	19495706 473 165082 165495 1797 1800 13 5.6500000953674 13.14999961853 122.19999694824 1219.7736818981
31383	19496179 494 165051 165495 1796.75 1800 14 163.390625 189.71563720703 2436.237487793 424956.35656166
31382	19496673 517 165051 165495 1796.75 1800 14 486.85000610352 486.85000610352 6815.9000854492 3318320.9982019
31393	19497190 367 165179 165495 1797.75 1800 10 5.2162187258585 9.0094788378334 71.010429736213 518.89513016095
31392	19497557 261 165179 165495 1797.75 1800 10 2.4999980926514 2.5 24.999998092651 62.49999046326
31391	19497818 402 165146 165495 1797.5 1800 11 5.6500000953674 11.89999961853 96.524997711182 889.97557648659
31390	19498220 444 165113 165495 1797.25 1800 12 765.44688415527 785.82187652588 9330.6907196045 7255685.5076577
31389	19498664 444 165113 165495 1797.25 1800 12 483.14999389648 483.14999389648 5797.7999267578 2801206.9992261
31400	19499108 294 165249 165495 1798.25 1800 8 5.2162187258585 8.1519697732254 53.421447184847 364.11653726105
31399	19499402 212 165249 165495 1798.25 1800 8 2.4999980926514 2.5 19.999998092651 49.99999046326
31398	19499614 329 165214 165495 1798 1800 9 5.6500000953674 10.64999961853 73.349998474121 621.23996916771
31397	19499943 369 165179 165495 1797.75 1800 10 483.14999389648 483.14999389648 4831.4999389648 2334339.1660217
31396	19500312 361 165179 165495 1797.75 1800 10 167.16717529297 182.21716308594 1732.8341674805 300527.21610661
27528	19500673 637 0 165494 0 1800 31 0 23 491 8375
27529	19501310 651 0 165494 0 1800 31 0 194 3000 392428
