file 18957036 1591417575                                        
version 2
run nodebug-19-20200606-00:22:58-5072
attr configname nodebug
attr datetime 20200606-00:22:58
attr experiment nodebug
attr inifile omnetpp.ini
attr iterationvars ""
attr iterationvars2 $repetition=19
attr measurement ""
attr network "\"org.car2x.veins.modules.application.ExtTraCIScenarioManagerLaunchd.IntersectionExampleScenario\""
attr processid 5072
attr repetition 19
attr replication #19
attr resultdir results
attr runnumber 19
attr seedset 19
param **.coreDebug false
param **.debug false
param *.**.nic.mac1609_4.bitrate 18Mbps
param *.**.nic.mac1609_4.txPower 20mW
param *.**.nic.mac1609_4.useServiceChannel false
param *.**.nic.phy80211p.analogueModels "xmldoc(\"config.xml\")"
param *.**.nic.phy80211p.decider "xmldoc(\"config.xml\")"
param *.**.nic.phy80211p.sensitivity -89dBm
param *.**.nic.phy80211p.thermalNoise -110dBm
param *.**.nic.phy80211p.usePropagationDelay true
param *.**.nic.phy80211p.useThermalNoise true
param *.annotations.draw false
param *.connectionManager.alpha 2.0
param *.connectionManager.carrierFrequency "5.890e9 Hz"
param *.connectionManager.pMax 20mW
param *.connectionManager.sat -89dBm
param *.connectionManager.sendDirect true
param *.manager.autoShutdown true
param *.manager.host "\"localhost\""
param *.manager.launchConfig "xmldoc(\"paramics.launchd.xml\")"
param *.manager.margin 25
param *.manager.moduleDisplayString "\"\""
param *.manager.moduleName "\"node\""
param *.manager.moduleType "\"org.car2x.veins.nodes.Car\""
param *.manager.port 9999
param *.manager.updateInterval 250ms
param *.node[*0].veinsmobility.accidentCount 0
param *.node[*0].veinsmobility.accidentDuration 30s
param *.node[*0].veinsmobility.accidentStart 75s
param *.node[*].appl.LiderSelectZoneRadio 55.0
param *.node[*].appl.ShareDataZoneRadio 110.0
param *.node[*].appl.TiempoSemaforo 30.0
param *.node[*].appl.beaconInterval 1s
param *.node[*].appl.beaconPriority 3
param *.node[*].appl.dataOnSch false
param *.node[*].appl.dataPriority 2
param *.node[*].appl.debug false
param *.node[*].appl.headerLength "256 bit"
param *.node[*].appl.maxOffset 0.005s
param *.node[*].appl.sendBeacons false
param *.node[*].appl.sendData true
param *.node[*].applType "\"Dummy\""
param *.node[*].mobilityType "\"TraCIMobility\""
param *.node[*].mobilityType.debug true
param *.node[*].veinsmobility.x 0
param *.node[*].veinsmobility.y 0
param *.node[*].veinsmobility.z 1.895
param *.node[*].veinsmobilityType "\"org.car2x.veins.modules.mobility.traci.TraCIMobility\""
param *.node[*].veinsmobilityType.debug true
param *.playgroundSizeX 8500m
param *.playgroundSizeY 8500m
param *.playgroundSizeZ 50m
param *.world.use2D false
param *.world.useTorus false

vector 35388  IntersectionExampleScenario.manager  vehiclesinsim  ETV
attr type  int
vector 35389  IntersectionExampleScenario.manager  realtime  ETV
attr type  int
attr unit  s
vector 35392  IntersectionExampleScenario.node[0].veinsmobility  posx  ETV
vector 35393  IntersectionExampleScenario.node[0].veinsmobility  posy  ETV
vector 35394  IntersectionExampleScenario.node[0].veinsmobility  speed  ETV
vector 35395  IntersectionExampleScenario.node[0].veinsmobility  acceleration  ETV
vector 35396  IntersectionExampleScenario.node[0].veinsmobility  co2emission  ETV
vector 35399  IntersectionExampleScenario.node[1].veinsmobility  posx  ETV
vector 35400  IntersectionExampleScenario.node[1].veinsmobility  posy  ETV
vector 35401  IntersectionExampleScenario.node[1].veinsmobility  speed  ETV
vector 35402  IntersectionExampleScenario.node[1].veinsmobility  acceleration  ETV
vector 35403  IntersectionExampleScenario.node[1].veinsmobility  co2emission  ETV
vector 35406  IntersectionExampleScenario.node[2].veinsmobility  posx  ETV
vector 35407  IntersectionExampleScenario.node[2].veinsmobility  posy  ETV
vector 35408  IntersectionExampleScenario.node[2].veinsmobility  speed  ETV
vector 35409  IntersectionExampleScenario.node[2].veinsmobility  acceleration  ETV
vector 35410  IntersectionExampleScenario.node[2].veinsmobility  co2emission  ETV
vector 35413  IntersectionExampleScenario.node[3].veinsmobility  posx  ETV
vector 35414  IntersectionExampleScenario.node[3].veinsmobility  posy  ETV
vector 35415  IntersectionExampleScenario.node[3].veinsmobility  speed  ETV
vector 35416  IntersectionExampleScenario.node[3].veinsmobility  acceleration  ETV
vector 35417  IntersectionExampleScenario.node[3].veinsmobility  co2emission  ETV
vector 35420  IntersectionExampleScenario.node[4].veinsmobility  posx  ETV
vector 35421  IntersectionExampleScenario.node[4].veinsmobility  posy  ETV
vector 35422  IntersectionExampleScenario.node[4].veinsmobility  speed  ETV
vector 35423  IntersectionExampleScenario.node[4].veinsmobility  acceleration  ETV
vector 35424  IntersectionExampleScenario.node[4].veinsmobility  co2emission  ETV
vector 35427  IntersectionExampleScenario.node[5].veinsmobility  posx  ETV
vector 35428  IntersectionExampleScenario.node[5].veinsmobility  posy  ETV
vector 35429  IntersectionExampleScenario.node[5].veinsmobility  speed  ETV
vector 35430  IntersectionExampleScenario.node[5].veinsmobility  acceleration  ETV
vector 35431  IntersectionExampleScenario.node[5].veinsmobility  co2emission  ETV
vector 35434  IntersectionExampleScenario.node[6].veinsmobility  posx  ETV
vector 35435  IntersectionExampleScenario.node[6].veinsmobility  posy  ETV
vector 35436  IntersectionExampleScenario.node[6].veinsmobility  speed  ETV
vector 35437  IntersectionExampleScenario.node[6].veinsmobility  acceleration  ETV
vector 35438  IntersectionExampleScenario.node[6].veinsmobility  co2emission  ETV
vector 35441  IntersectionExampleScenario.node[7].veinsmobility  posx  ETV
vector 35442  IntersectionExampleScenario.node[7].veinsmobility  posy  ETV
vector 35443  IntersectionExampleScenario.node[7].veinsmobility  speed  ETV
vector 35444  IntersectionExampleScenario.node[7].veinsmobility  acceleration  ETV
vector 35445  IntersectionExampleScenario.node[7].veinsmobility  co2emission  ETV
vector 35448  IntersectionExampleScenario.node[8].veinsmobility  posx  ETV
vector 35449  IntersectionExampleScenario.node[8].veinsmobility  posy  ETV
vector 35450  IntersectionExampleScenario.node[8].veinsmobility  speed  ETV
vector 35451  IntersectionExampleScenario.node[8].veinsmobility  acceleration  ETV
vector 35452  IntersectionExampleScenario.node[8].veinsmobility  co2emission  ETV
vector 35455  IntersectionExampleScenario.node[9].veinsmobility  posx  ETV
vector 35456  IntersectionExampleScenario.node[9].veinsmobility  posy  ETV
vector 35457  IntersectionExampleScenario.node[9].veinsmobility  speed  ETV
vector 35458  IntersectionExampleScenario.node[9].veinsmobility  acceleration  ETV
vector 35459  IntersectionExampleScenario.node[9].veinsmobility  co2emission  ETV
vector 35462  IntersectionExampleScenario.node[10].veinsmobility  posx  ETV
vector 35463  IntersectionExampleScenario.node[10].veinsmobility  posy  ETV
vector 35464  IntersectionExampleScenario.node[10].veinsmobility  speed  ETV
vector 35465  IntersectionExampleScenario.node[10].veinsmobility  acceleration  ETV
vector 35466  IntersectionExampleScenario.node[10].veinsmobility  co2emission  ETV
vector 35469  IntersectionExampleScenario.node[11].veinsmobility  posx  ETV
vector 35470  IntersectionExampleScenario.node[11].veinsmobility  posy  ETV
vector 35471  IntersectionExampleScenario.node[11].veinsmobility  speed  ETV
vector 35472  IntersectionExampleScenario.node[11].veinsmobility  acceleration  ETV
vector 35473  IntersectionExampleScenario.node[11].veinsmobility  co2emission  ETV
vector 35476  IntersectionExampleScenario.node[12].veinsmobility  posx  ETV
vector 35477  IntersectionExampleScenario.node[12].veinsmobility  posy  ETV
vector 35478  IntersectionExampleScenario.node[12].veinsmobility  speed  ETV
vector 35479  IntersectionExampleScenario.node[12].veinsmobility  acceleration  ETV
vector 35480  IntersectionExampleScenario.node[12].veinsmobility  co2emission  ETV
35396	8097 6423 47 3146 10.5 65.5 221 0.973 11.450879080643 581.48503746452 2818.5177324928
35395	14520 5806 47 3146 10.5 65.5 221 -8.487024307251 4 37.15309715271 478.32413438468
35394	20326 6181 44 3146 10.25 65.5 222 0 15.375 2198.7463283539 30558.206619436
35393	26507 7204 41 3146 10 65.5 223 184.17810058594 486.85000610352 93266.81439209 41037819.342922
35392	33711 7218 41 3146 10 65.5 223 237.33026123047 486.85000610352 100041.10858154 45972576.373232
35417	40929 5147 311 3260 24.5 67 171 0.94566218171372 12.717865293408 583.61389184914 3704.4197636968
35416	46076 5082 311 3260 24.5 67 171 -2.7469158172607 2.5 43.603719711304 369.80998952803
35415	51158 5250 302 3260 24.25 67 172 4.3415174484253 17.125 2192.1759705544 31115.333782721
35414	56408 5621 293 3260 24 67 173 184.17810058594 483.17947387695 69412.426727295 29560433.780798
35413	62029 5644 293 3260 24 67 173 486.85000610352 734.76872253418 91898.273269653 49737012.915584
vector 35483  IntersectionExampleScenario.node[13].veinsmobility  posx  ETV
vector 35484  IntersectionExampleScenario.node[13].veinsmobility  posy  ETV
vector 35485  IntersectionExampleScenario.node[13].veinsmobility  speed  ETV
vector 35486  IntersectionExampleScenario.node[13].veinsmobility  acceleration  ETV
vector 35487  IntersectionExampleScenario.node[13].veinsmobility  co2emission  ETV
vector 35490  IntersectionExampleScenario.node[14].veinsmobility  posx  ETV
vector 35491  IntersectionExampleScenario.node[14].veinsmobility  posy  ETV
vector 35492  IntersectionExampleScenario.node[14].veinsmobility  speed  ETV
vector 35493  IntersectionExampleScenario.node[14].veinsmobility  acceleration  ETV
vector 35494  IntersectionExampleScenario.node[14].veinsmobility  co2emission  ETV
vector 35497  IntersectionExampleScenario.node[15].veinsmobility  posx  ETV
vector 35498  IntersectionExampleScenario.node[15].veinsmobility  posy  ETV
vector 35499  IntersectionExampleScenario.node[15].veinsmobility  speed  ETV
vector 35500  IntersectionExampleScenario.node[15].veinsmobility  acceleration  ETV
vector 35501  IntersectionExampleScenario.node[15].veinsmobility  co2emission  ETV
vector 35504  IntersectionExampleScenario.node[16].veinsmobility  posx  ETV
vector 35505  IntersectionExampleScenario.node[16].veinsmobility  posy  ETV
vector 35506  IntersectionExampleScenario.node[16].veinsmobility  speed  ETV
vector 35507  IntersectionExampleScenario.node[16].veinsmobility  acceleration  ETV
vector 35508  IntersectionExampleScenario.node[16].veinsmobility  co2emission  ETV
vector 35511  IntersectionExampleScenario.node[17].veinsmobility  posx  ETV
vector 35512  IntersectionExampleScenario.node[17].veinsmobility  posy  ETV
vector 35513  IntersectionExampleScenario.node[17].veinsmobility  speed  ETV
vector 35514  IntersectionExampleScenario.node[17].veinsmobility  acceleration  ETV
vector 35515  IntersectionExampleScenario.node[17].veinsmobility  co2emission  ETV
vector 35518  IntersectionExampleScenario.node[18].veinsmobility  posx  ETV
vector 35519  IntersectionExampleScenario.node[18].veinsmobility  posy  ETV
vector 35520  IntersectionExampleScenario.node[18].veinsmobility  speed  ETV
vector 35521  IntersectionExampleScenario.node[18].veinsmobility  acceleration  ETV
vector 35522  IntersectionExampleScenario.node[18].veinsmobility  co2emission  ETV
35403	70079 7260 117 4215 16 79.5 255 0.973 11.36141391502 612.32298256408 2828.2717037943
35402	77339 6488 117 4215 16 79.5 255 -8.4870233535767 4 37.15309715271 476.36027920365
35401	83827 6837 112 4215 15.75 79.5 256 0 15.25 2176.74477458 30094.703439055
35400	90664 8324 107 4215 15.5 79.5 257 236.84155273438 483.14999389648 115832.21011353 53301881.147559
35399	98988 8370 107 4215 15.5 79.5 257 184.17810058594 483.36395263672 109048.39279175 48354412.534413
vector 35525  IntersectionExampleScenario.node[19].veinsmobility  posx  ETV
vector 35526  IntersectionExampleScenario.node[19].veinsmobility  posy  ETV
vector 35527  IntersectionExampleScenario.node[19].veinsmobility  speed  ETV
vector 35528  IntersectionExampleScenario.node[19].veinsmobility  acceleration  ETV
vector 35529  IntersectionExampleScenario.node[19].veinsmobility  co2emission  ETV
35410	107759 7106 251 4466 22.5 82.5 241 0.973 10.756497587458 579.21300312448 2449.6741322779
35409	114865 6511 251 4466 22.5 82.5 241 -7.8154296875 4 34.267293930054 445.1170072729
35408	121376 7066 244 4466 22.25 82.5 242 0 14.39999961853 2202.5145680606 29217.891483829
35407	128442 7947 237 4466 22 82.5 243 234.92291259766 486.85000610352 109168.41320801 50233377.094654
35406	136389 7941 237 4466 22 82.5 243 482.98110961914 785.82187652588 133346.70262146 75293442.843082
35424	144330 6581 459 4570 28.5 83.75 222 0.973 11.648172402475 608.03721322274 3009.0918287403
35423	150911 7009 459 4570 28.5 83.75 222 -22.595455169678 4 40.141065597534 925.27779862588
35422	157920 6950 448 4570 28.25 83.75 223 0 15.771149635315 2187.4100605659 29149.257229806
35421	164870 7347 437 4570 28 83.75 224 235.65484619141 483.14999389648 100090.24182129 45763651.464648
35420	172217 7318 437 4570 28 83.75 224 184.17810058594 483.23623657227 92778.711242676 40330009.852967
35431	179535 6630 551 4684 30.5 85.25 220 0.973 11.648172402475 604.05267286804 2945.6770094828
35430	186165 7104 551 4684 30.5 85.25 220 -4.5 2.5 41.057416915894 361.25849167639
35429	193269 7235 538 4684 30.25 85.25 221 0 15.922357559204 2210.7899965718 30308.253464333
35428	200504 7282 525 4684 30 85.25 222 235.33947753906 486.85000610352 99856.154907227 45979601.41272
35427	207786 7267 525 4684 30 85.25 222 483.14999389648 785.82187652588 122900.94818878 69972360.222146
35445	215053 5701 1013 4703 38.5 85.5 189 0.973 11.990504229548 565.82372702624 3089.5554143666
35444	220754 5684 1013 4703 38.5 85.5 189 -4.5 2.5000019073486 39.869146347046 359.52229541568
35443	226438 6087 996 4703 38.25 85.5 190 3.0789046287537 16.125 2220.2202513218 29745.425544715
35442	232525 6300 979 4703 38 85.5 191 486.85000610352 486.85000610352 92988.351165771 45271379.332612
35441	238825 6249 979 4703 38 85.5 191 235.73364257812 785.82187652588 100024.42261505 56501833.582241
35466	245074 5030 1864 5026 49.5 89.75 162 0.973 11.731600213676 556.46775021552 3485.4385937214
35465	250104 4657 1864 5026 49.5 89.75 162 -3.3899936676025 2.5 38.341367721558 341.19123535417
35464	254761 5059 1842 5026 49.25 89.75 163 5.6500000953674 15.766013145447 2187.5148682594 30683.769956383
35463	259820 5403 1819 5026 49 89.75 164 486.85000610352 734.31608581543 88116.277236938 48286318.29446
35462	265223 5397 1819 5026 49 89.75 164 486.69680786133 785.82187652588 93809.348457336 55409075.647033
vector 35532  IntersectionExampleScenario.node[20].veinsmobility  posx  ETV
vector 35533  IntersectionExampleScenario.node[20].veinsmobility  posy  ETV
vector 35534  IntersectionExampleScenario.node[20].veinsmobility  speed  ETV
vector 35535  IntersectionExampleScenario.node[20].veinsmobility  acceleration  ETV
vector 35536  IntersectionExampleScenario.node[20].veinsmobility  co2emission  ETV
35438	271021 7291 724 5518 33.75 96.25 251 0.973 11.00486315618 588.89902856002 2598.0290948959
35437	278312 6547 724 5518 33.75 96.25 251 -8.9527311325073 4 34.097539901733 465.54392889226
35436	284859 6968 709 5518 33.5 96.25 252 0 14.75 2207.4479663372 29468.083042919
35435	291827 8317 694 5518 33.25 96.25 253 237.09387207031 785.82187652588 129702.53234863 70876817.697521
35434	300144 8329 694 5518 33.25 96.25 253 483.14999389648 483.14999389648 122236.94845581 59058780.90035
35452	308473 6926 1153 5603 40.5 97.5 229 0.973 11.75257763172 609.65916875864 2917.0551892057
35451	315399 7565 1153 5603 40.5 97.5 229 -3.7030470371246 2.5 40.080633163452 352.01084881812
35450	322964 7456 1134 5603 40.25 97.5 230 0 15.79515838623 2207.1097790729 29736.133514685
35449	330420 7600 1115 5603 40 97.5 231 238.91931152344 785.82187652588 119592.073349 66090185.058431
35448	338020 7622 1115 5603 40 97.5 231 483.14999389648 483.14999389648 111607.64859009 53923234.735102
35459	345642 6343 1651 5773 47 100 213 0.973 11.200708441096 556.40695349726 2609.2187903676
35458	351985 6569 1651 5773 47 100 213 -3.8259129524231 2.5 35.964826583862 322.61255647369
35457	358554 6897 1630 5773 46.75 100 214 0 15.02499961853 2211.0123588145 28158.40275648
35456	365451 7067 1609 5773 46.5 100 215 237.78454589844 785.82187652588 112315.57704926 62937005.729935
35455	372518 7095 1609 5773 46.5 100 215 483.14999389648 483.14999389648 103877.24868774 50188292.069467
vector 35539  IntersectionExampleScenario.node[21].veinsmobility  posx  ETV
vector 35540  IntersectionExampleScenario.node[21].veinsmobility  posy  ETV
vector 35546  IntersectionExampleScenario.node[22].veinsmobility  posx  ETV
vector 35547  IntersectionExampleScenario.node[22].veinsmobility  posy  ETV
vector 35541  IntersectionExampleScenario.node[21].veinsmobility  speed  ETV
vector 35542  IntersectionExampleScenario.node[21].veinsmobility  acceleration  ETV
vector 35543  IntersectionExampleScenario.node[21].veinsmobility  co2emission  ETV
vector 35548  IntersectionExampleScenario.node[22].veinsmobility  speed  ETV
vector 35549  IntersectionExampleScenario.node[22].veinsmobility  acceleration  ETV
vector 35550  IntersectionExampleScenario.node[22].veinsmobility  co2emission  ETV
35494	380415 4912 3500 6283 70.25 108 152 0.973 12.099024792222 509.65437851529 2931.6333282533
35493	385327 4454 3500 6283 70.25 108 152 -3.4178009033203 2.5 41.227170944214 260.25388798362
35492	389781 4776 3483 6283 70 108 153 5.6500000953674 16.27499961853 2208.285572052 32998.513095376
35491	394557 5106 3465 6283 69.75 108 154 483.12088012695 785.82187652588 88135.233253479 52175747.115485
35490	399663 5106 3465 6283 69.75 108 154 483.14999389648 733.19093322754 82459.177658081 45071112.617745
vector 35553  IntersectionExampleScenario.node[23].veinsmobility  posx  ETV
vector 35554  IntersectionExampleScenario.node[23].veinsmobility  posy  ETV
vector 35555  IntersectionExampleScenario.node[23].veinsmobility  speed  ETV
vector 35556  IntersectionExampleScenario.node[23].veinsmobility  acceleration  ETV
vector 35557  IntersectionExampleScenario.node[23].veinsmobility  co2emission  ETV
35480	405170 6213 2827 6516 61.75 112 202 0.973 11.36141391502 560.52367049634 2776.9386081697
35479	411383 5699 2827 6516 61.75 112 202 -8.2128324508667 4 36.813589096069 487.73835781618
35478	417082 6141 2804 6516 61.5 112 203 0 15.25 2185.6562452316 30127.864157437
35477	423223 6751 2781 6516 61.25 112 204 184.17810058594 483.19274902344 84030.717376709 36551904.13001
35476	429974 6776 2781 6516 61.25 112 204 486.85000610352 735.0157623291 107822.0269165 58037792.436917
vector 35560  IntersectionExampleScenario.node[24].veinsmobility  posx  ETV
vector 35561  IntersectionExampleScenario.node[24].veinsmobility  posy  ETV
vector 35562  IntersectionExampleScenario.node[24].veinsmobility  speed  ETV
vector 35563  IntersectionExampleScenario.node[24].veinsmobility  acceleration  ETV
vector 35564  IntersectionExampleScenario.node[24].veinsmobility  co2emission  ETV
35522	437151 5021 4147 6737 78.75 116.75 153 0.97223939240464 11.648172402475 471.80125096764 2469.8143218926
35521	442172 4543 4147 6737 78.75 116.75 153 -3.5467834472656 2.5 38.680875778198 197.15959754627
35520	446715 4922 4124 6737 78.5 116.75 154 5.6500000953674 15.64999961853 2210.3583860397 32381.156427409
35519	451637 5153 4101 6737 78.25 116.75 155 184.17810058594 731.58805847168 69392.785308838 35155219.938853
35518	456790 5185 4101 6737 78.25 116.75 155 486.85000610352 486.85000610352 75461.750946045 36738553.908664
vector 35567  IntersectionExampleScenario.node[25].veinsmobility  posx  ETV
vector 35568  IntersectionExampleScenario.node[25].veinsmobility  posy  ETV
vector 35569  IntersectionExampleScenario.node[25].veinsmobility  speed  ETV
vector 35570  IntersectionExampleScenario.node[25].veinsmobility  acceleration  ETV
vector 35571  IntersectionExampleScenario.node[25].veinsmobility  co2emission  ETV
vector 35574  IntersectionExampleScenario.node[26].veinsmobility  posx  ETV
vector 35575  IntersectionExampleScenario.node[26].veinsmobility  posy  ETV
vector 35576  IntersectionExampleScenario.node[26].veinsmobility  speed  ETV
vector 35577  IntersectionExampleScenario.node[26].veinsmobility  acceleration  ETV
vector 35578  IntersectionExampleScenario.node[26].veinsmobility  co2emission  ETV
35473	462777 7230 2739 7059 60.75 123.25 251 0.973 12.553400930962 659.65941433404 3591.4830853491
35472	470007 6653 2739 7059 60.75 123.25 251 -7.4028387069702 4 42.754949569702 528.39185435473
35471	476660 6838 2718 7059 60.5 123.25 252 0 16.89999961853 2209.8865306377 33260.503309023
35470	483498 8444 2697 7059 60.25 123.25 253 486.85000610352 486.85000610352 123173.05154419 59966800.896077
35469	491942 8410 2697 7059 60.25 123.25 253 237.52502441406 785.82187652588 129820.00226593 70574693.669051
35501	500352 6532 3555 7124 71 124.5 215 0.973 11.200708441096 563.79113239763 2673.4991308564
35500	506884 5950 3555 7124 71 124.5 215 -8.6544361114502 4 35.795072555542 474.85014899822
35499	512834 6316 3536 7124 70.75 124.5 216 0 15.02499961853 2177.8262689114 29693.306448537
35498	519150 7257 3517 7124 70.5 124.5 217 483.14999389648 732.46864318848 113543.45672607 60509643.244134
35497	526407 7240 3517 7124 70.5 124.5 217 184.17810058594 486.85000610352 90272.423797607 39574987.367719
35508	533647 6395 3899 7241 75.75 126.75 205 0.973 10.916047529558 534.11229253634 2489.7024045881
35507	540042 6360 3899 7241 75.75 126.75 205 -3.9802451133728 2.5000009536743 34.606801986694 331.34852995693
35506	546402 6613 3880 7241 75.5 126.75 206 0 14.625 2183.255261492 28110.724226035
35505	553015 6934 3861 7241 75.25 126.75 207 237.08764648438 483.14999389648 91333.732452393 41355757.706808
35504	559949 6911 3861 7241 75.25 126.75 207 184.17810058594 483.30133056641 84663.753417969 36546984.225567
35487	566860 7200 3335 7241 68 126.75 236 0.973 11.54047740176 587.1421299384 2798.1200220937
35486	574060 7696 3335 7241 68 126.75 236 -3.7982807159424 2.5 37.15309715271 322.34252142376
35485	581756 7778 3316 7241 67.75 126.75 237 0 15.5 2218.7119881958 29189.229804041
35484	589534 7963 3297 7241 67.5 126.75 238 486.85000610352 486.85000610352 115870.30145264 56411456.969432
35483	597497 7934 3297 7241 67.5 126.75 238 235.77014160156 785.82187652588 123281.36626434 68100842.604918
35515	605431 6234 4017 7345 77.25 128.75 207 0.973 11.648172402475 571.16808819051 2871.949633177
35514	611665 6476 4017 7345 77.25 128.75 207 -2.1903343200684 2.5 39.869146347046 310.50298541897
35513	618141 6677 3996 7345 77 128.75 208 1.1981052160263 15.64999961853 2182.5244973898 28510.783792289
35512	624818 7011 3975 7345 76.75 128.75 209 486.85000610352 732.41516113281 109728.55258179 58603246.551883
35511	631829 7006 3975 7345 76.75 128.75 209 486.85000610352 785.82187652588 117509.23116302 67892289.83363
vector 35581  IntersectionExampleScenario.node[27].veinsmobility  posx  ETV
vector 35582  IntersectionExampleScenario.node[27].veinsmobility  posy  ETV
vector 35583  IntersectionExampleScenario.node[27].veinsmobility  speed  ETV
vector 35584  IntersectionExampleScenario.node[27].veinsmobility  acceleration  ETV
vector 35585  IntersectionExampleScenario.node[27].veinsmobility  co2emission  ETV
35529	639236 6114 4445 7479 82.25 131.25 197 0.973 11.200708441096 540.16227312699 2663.4782192691
35528	645350 6041 4445 7479 82.25 131.25 197 -4.5 2.5 37.15309715271 354.46216842414
35527	651391 6383 4424 7479 82 131.25 198 0.93700456619263 15.02499961853 2202.4440031052 28643.192668333
35526	657774 6680 4403 7479 81.75 131.25 199 238.18988037109 486.85000610352 88404.510314941 40316755.370489
35525	664454 6677 4403 7479 81.75 131.25 199 483.14999389648 785.82187652588 112225.75318146 65148802.375317
35536	671131 5400 5201 7674 92 134.5 171 0.973 11.36141391502 531.75553047019 2993.6486775661
35535	676531 5364 5201 7674 92 134.5 171 -3.3005828857422 2.5 36.134572982788 310.79340657461
35534	681895 5501 5180 7674 91.75 134.5 172 5.6500000953674 15.25 2184.9625759125 28959.707299492
35533	687396 5839 5159 7674 91.5 134.5 173 486.85000610352 733.30087280273 92699.978271484 50647792.403072
35532	693235 5828 5159 7674 91.5 134.5 173 486.68023681641 785.82187652588 98931.865180969 58354124.422197
vector 35588  IntersectionExampleScenario.node[28].veinsmobility  posx  ETV
vector 35589  IntersectionExampleScenario.node[28].veinsmobility  posy  ETV
vector 35590  IntersectionExampleScenario.node[28].veinsmobility  speed  ETV
vector 35591  IntersectionExampleScenario.node[28].veinsmobility  acceleration  ETV
vector 35592  IntersectionExampleScenario.node[28].veinsmobility  co2emission  ETV
vector 35595  IntersectionExampleScenario.node[29].veinsmobility  posx  ETV
vector 35596  IntersectionExampleScenario.node[29].veinsmobility  posy  ETV
vector 35597  IntersectionExampleScenario.node[29].veinsmobility  speed  ETV
vector 35598  IntersectionExampleScenario.node[29].veinsmobility  acceleration  ETV
vector 35599  IntersectionExampleScenario.node[29].veinsmobility  co2emission  ETV
vector 35602  IntersectionExampleScenario.node[30].veinsmobility  posx  ETV
vector 35603  IntersectionExampleScenario.node[30].veinsmobility  posy  ETV
vector 35604  IntersectionExampleScenario.node[30].veinsmobility  speed  ETV
vector 35605  IntersectionExampleScenario.node[30].veinsmobility  acceleration  ETV
vector 35606  IntersectionExampleScenario.node[30].veinsmobility  co2emission  ETV
vector 35609  IntersectionExampleScenario.node[31].veinsmobility  posx  ETV
vector 35610  IntersectionExampleScenario.node[31].veinsmobility  posy  ETV
vector 35611  IntersectionExampleScenario.node[31].veinsmobility  speed  ETV
vector 35612  IntersectionExampleScenario.node[31].veinsmobility  acceleration  ETV
vector 35613  IntersectionExampleScenario.node[31].veinsmobility  co2emission  ETV
vector 35616  IntersectionExampleScenario.node[32].veinsmobility  posx  ETV
vector 35617  IntersectionExampleScenario.node[32].veinsmobility  posy  ETV
vector 35618  IntersectionExampleScenario.node[32].veinsmobility  speed  ETV
vector 35623  IntersectionExampleScenario.node[33].veinsmobility  posx  ETV
vector 35624  IntersectionExampleScenario.node[33].veinsmobility  posy  ETV
vector 35619  IntersectionExampleScenario.node[32].veinsmobility  acceleration  ETV
vector 35620  IntersectionExampleScenario.node[32].veinsmobility  co2emission  ETV
vector 35625  IntersectionExampleScenario.node[33].veinsmobility  speed  ETV
vector 35626  IntersectionExampleScenario.node[33].veinsmobility  acceleration  ETV
vector 35627  IntersectionExampleScenario.node[33].veinsmobility  co2emission  ETV
vector 35630  IntersectionExampleScenario.node[34].veinsmobility  posx  ETV
vector 35631  IntersectionExampleScenario.node[34].veinsmobility  posy  ETV
vector 35632  IntersectionExampleScenario.node[34].veinsmobility  speed  ETV
vector 35633  IntersectionExampleScenario.node[34].veinsmobility  acceleration  ETV
vector 35634  IntersectionExampleScenario.node[34].veinsmobility  co2emission  ETV
35550	701870 7233 6227 10130 107.25 168.25 245 0.973 12.553400930962 648.62032359751 3529.6542158026
35549	709103 6706 6227 10130 107.25 168.25 245 -8.2048759460449 4 42.585195541382 529.4234891482
35548	715809 6823 6208 10130 107 168.25 246 0 16.89999961853 2168.0612955093 32226.301420531
35547	722632 8332 6189 10130 106.75 168.25 247 239.35101318359 483.14999389648 111802.15731812 51594144.752871
35546	730964 8383 6189 10130 106.75 168.25 247 184.17810058594 483.36395263672 104963.75140381 46609163.332677
35543	739347 7457 6208 10201 107 169.25 250 0.973 11.648172402475 614.96055260614 2950.9026898475
35542	746804 6869 6208 10201 107 169.25 250 -8.4908542633057 4 38.001859664917 488.16021245119
35541	753673 7061 6189 10201 106.75 169.25 251 0 15.64999961853 2172.5753586292 30408.735714519
35540	760734 8515 6172 10201 106.5 169.25 252 486.85000610352 732.01240539551 130842.03079224 68999933.799682
35539	769249 8572 6172 10201 106.5 169.25 252 486.63604736328 785.82187652588 137624.30930328 77220617.762356
35557	777821 7700 6392 10252 109.75 170 242 0.973 11.990504229548 634.75420701257 3162.1465488567
35556	785521 7630 6392 10252 109.75 170 242 -4.5 2.5 40.038900375366 461.05322786848
35555	793151 7769 6377 10252 109.5 170 243 0 16.125 2278.3706455873 32703.901173456
35554	800920 8310 6361 10252 109.25 170 244 486.85000610352 486.85000610352 118791.40148926 57833594.54009
35553	809230 8247 6361 10252 109.25 170 244 235.43048095703 800.04531860352 126991.95726013 70529120.526202
35571	817477 6551 6793 10286 118 170.5 211 0.973 11.54047740176 560.83469422154 2786.7372034076
35570	824028 6787 6793 10286 118 170.5 211 -3.820746421814 2.5 37.15309715271 331.26007197373
35569	830815 7072 6782 10286 117.75 170.5 212 0 15.5 2212.7301116399 29173.36573295
35568	837887 7258 6770 10286 117.5 170.5 213 483.14999389648 483.14999389648 102910.94869995 49721424.236263
35567	845145 7226 6770 10286 117.5 170.5 213 184.17810058594 732.58139038086 95818.666091919 47306053.460597
vector 35637  IntersectionExampleScenario.node[35].veinsmobility  posx  ETV
vector 35638  IntersectionExampleScenario.node[35].veinsmobility  posy  ETV
vector 35639  IntersectionExampleScenario.node[35].veinsmobility  speed  ETV
vector 35640  IntersectionExampleScenario.node[35].veinsmobility  acceleration  ETV
vector 35641  IntersectionExampleScenario.node[35].veinsmobility  co2emission  ETV
35564	852772 7412 6622 10489 114.25 173.5 238 0.973 11.36141391502 596.00600693262 2840.4973817683
35563	860184 7597 6622 10489 114.25 173.5 238 -3.7476668357849 2.5 37.492597579956 347.79154524295
35562	867781 7801 6609 10489 114 173.5 239 0 15.25 2231.7395049389 28859.822086256
35561	875582 8180 6596 10489 113.75 173.5 240 486.85000610352 735.3656463623 125291.73840332 66506136.408177
35560	883762 8147 6596 10489 113.75 173.5 240 486.81274414062 795.37735748291 134138.93421936 77053543.540479
vector 35644  IntersectionExampleScenario.node[36].veinsmobility  posx  ETV
vector 35645  IntersectionExampleScenario.node[36].veinsmobility  posy  ETV
vector 35646  IntersectionExampleScenario.node[36].veinsmobility  speed  ETV
vector 35647  IntersectionExampleScenario.node[36].veinsmobility  acceleration  ETV
vector 35648  IntersectionExampleScenario.node[36].veinsmobility  co2emission  ETV
vector 35651  IntersectionExampleScenario.node[37].veinsmobility  posx  ETV
vector 35652  IntersectionExampleScenario.node[37].veinsmobility  posy  ETV
vector 35653  IntersectionExampleScenario.node[37].veinsmobility  speed  ETV
vector 35654  IntersectionExampleScenario.node[37].veinsmobility  acceleration  ETV
vector 35655  IntersectionExampleScenario.node[37].veinsmobility  co2emission  ETV
vector 35658  IntersectionExampleScenario.node[38].veinsmobility  posx  ETV
vector 35659  IntersectionExampleScenario.node[38].veinsmobility  posy  ETV
vector 35660  IntersectionExampleScenario.node[38].veinsmobility  speed  ETV
vector 35661  IntersectionExampleScenario.node[38].veinsmobility  acceleration  ETV
vector 35662  IntersectionExampleScenario.node[38].veinsmobility  co2emission  ETV
vector 35665  IntersectionExampleScenario.node[39].veinsmobility  posx  ETV
vector 35666  IntersectionExampleScenario.node[39].veinsmobility  posy  ETV
vector 35667  IntersectionExampleScenario.node[39].veinsmobility  speed  ETV
vector 35668  IntersectionExampleScenario.node[39].veinsmobility  acceleration  ETV
vector 35669  IntersectionExampleScenario.node[39].veinsmobility  co2emission  ETV
35578	893513 7858 6863 11211 119.5 185.25 264 0.973 11.648172402475 630.02341258103 2969.7779807118
35577	901371 7074 6863 11211 119.5 185.25 264 -7.4922199249268 4 38.171613693237 479.41769177267
35576	908445 7407 6850 11211 119.25 185.25 265 0 15.64999961853 2175.1207141876 30519.901571347
35575	915852 9107 6837 11211 119 185.25 266 486.63604736328 785.82187652588 144580.64904022 80673965.636405
35574	924959 9043 6837 11211 119 185.25 266 237.46997070312 483.14999389648 120349.11196899 55533526.001694
35585	934002 7103 7479 11355 131.25 187.5 226 0.973 11.648172402475 592.78914142371 2938.8496928768
35584	941105 7481 7479 11355 131.25 187.5 226 -3.6947979927063 2.5 39.699392318726 333.50353405813
35583	948586 7529 7464 11355 131 187.5 227 0 15.64999961853 2183.5920239501 29226.259721675
35582	956115 7822 7449 11355 130.75 187.5 228 486.85000610352 785.82187652588 126599.66324615 72199466.264681
35581	963937 7818 7449 11355 130.75 187.5 228 237.23602294922 483.14999389648 102165.35916138 46805079.762979
35592	971755 6346 8083 11565 141.25 191 200 0.973 11.200708441096 535.10762218644 2586.5925969634
35591	978101 6357 8083 11565 141.25 191 200 -2.3751935958862 2.5 35.795072555542 287.3697983704
35590	984458 6620 8066 11565 141 191 201 2.4504778385162 15.02499961853 2183.7424547672 27511.464585526
35589	991078 6949 8049 11565 140.75 191 202 486.83950805664 785.82187652588 114079.70246124 66272622.62563
35588	998027 6956 8049 11565 140.75 191 202 236.97039794922 483.14999389648 89073.853607178 40313304.522851
vector 35672  IntersectionExampleScenario.node[40].veinsmobility  posx  ETV
vector 35673  IntersectionExampleScenario.node[40].veinsmobility  posy  ETV
vector 35674  IntersectionExampleScenario.node[40].veinsmobility  speed  ETV
vector 35675  IntersectionExampleScenario.node[40].veinsmobility  acceleration  ETV
vector 35676  IntersectionExampleScenario.node[40].veinsmobility  co2emission  ETV
35599	1005384 6429 8274 11691 144 193 197 0.973 11.200708441096 551.19716762297 2693.9868598646
35598	1011813 6343 8274 11691 144 193 197 -4.5 2.5 37.32285118103 332.60698936036
35597	1018156 6552 8255 11691 143.75 193 198 3.3580894470215 15.037145614624 2241.8951251507 28954.342697158
35596	1024708 6852 8236 11691 143.5 193 199 486.85000610352 800.04531860352 113918.57713318 67236059.457745
35595	1031560 6865 8236 11691 143.5 193 199 236.56787109375 483.14999389648 87811.540618896 39765687.354396
35606	1038425 6320 8506 11844 147 195.25 194 0.973 11.200708441096 534.16482906607 2600.7092312434
35605	1044745 6475 8506 11844 147 195.25 194 -2.7600708007812 2.5 36.98334312439 253.45637676427
35604	1051220 6504 8485 11844 146.75 195.25 195 4.1088194847107 15.02499961853 2263.7758040428 29091.230828106
35603	1057724 6764 8464 11844 146.5 195.25 196 486.85000610352 805.70861053467 112779.79792023 67016196.474079
35602	1064488 6742 8464 11844 146.5 195.25 196 236.59899902344 483.14999389648 86312.128692627 39024288.915164
vector 35679  IntersectionExampleScenario.node[41].veinsmobility  posx  ETV
vector 35680  IntersectionExampleScenario.node[41].veinsmobility  posy  ETV
vector 35681  IntersectionExampleScenario.node[41].veinsmobility  speed  ETV
vector 35682  IntersectionExampleScenario.node[41].veinsmobility  acceleration  ETV
vector 35683  IntersectionExampleScenario.node[41].veinsmobility  co2emission  ETV
vector 35686  IntersectionExampleScenario.node[42].veinsmobility  posx  ETV
vector 35687  IntersectionExampleScenario.node[42].veinsmobility  posy  ETV
vector 35688  IntersectionExampleScenario.node[42].veinsmobility  speed  ETV
vector 35689  IntersectionExampleScenario.node[42].veinsmobility  acceleration  ETV
vector 35690  IntersectionExampleScenario.node[42].veinsmobility  co2emission  ETV
vector 35693  IntersectionExampleScenario.node[43].veinsmobility  posx  ETV
vector 35694  IntersectionExampleScenario.node[43].veinsmobility  posy  ETV
vector 35695  IntersectionExampleScenario.node[43].veinsmobility  speed  ETV
vector 35696  IntersectionExampleScenario.node[43].veinsmobility  acceleration  ETV
vector 35697  IntersectionExampleScenario.node[43].veinsmobility  co2emission  ETV
35613	1072433 6263 8951 12239 152.25 200.5 194 0.973 11.450879080643 555.21403746452 2792.9560494928
35612	1078696 5754 8951 12239 152.25 200.5 194 -8.487024307251 4 37.15309715271 478.32413438468
35611	1084450 6129 8928 12239 152 200.5 195 0 15.375 2198.7463283539 30558.206619436
35610	1090579 6780 8905 12239 151.75 200.5 196 184.17810058594 486.85000610352 80533.614227295 35032842.067487
35609	1097359 6794 8905 12239 151.75 200.5 196 237.33026123047 486.85000610352 86896.158416748 39572957.305271
35634	1104153 5488 9560 12359 160.75 202.25 167 0.973 11.648172402475 531.57847514422 3044.3821551682
35633	1109641 5336 9560 12359 160.75 202.25 167 -4.4101219177246 2.5 38.171613693237 303.45652011799
35632	1114977 5621 9541 12359 160.5 202.25 168 5.6500000953674 15.64999961853 2214.0661768913 30584.436798305
35631	1120598 5846 9522 12359 160.25 202.25 169 184.17810058594 732.14343261719 75489.918518066 37850445.002638
35630	1126444 5890 9522 12359 160.25 202.25 169 486.85000610352 486.85000610352 82277.651031494 40056874.906866
vector 35700  IntersectionExampleScenario.node[44].veinsmobility  posx  ETV
vector 35701  IntersectionExampleScenario.node[44].veinsmobility  posy  ETV
vector 35702  IntersectionExampleScenario.node[44].veinsmobility  speed  ETV
vector 35703  IntersectionExampleScenario.node[44].veinsmobility  acceleration  ETV
vector 35704  IntersectionExampleScenario.node[44].veinsmobility  co2emission  ETV
vector 35707  IntersectionExampleScenario.node[45].veinsmobility  posx  ETV
vector 35708  IntersectionExampleScenario.node[45].veinsmobility  posy  ETV
vector 35709  IntersectionExampleScenario.node[45].veinsmobility  speed  ETV
vector 35710  IntersectionExampleScenario.node[45].veinsmobility  acceleration  ETV
vector 35711  IntersectionExampleScenario.node[45].veinsmobility  co2emission  ETV
vector 35714  IntersectionExampleScenario.node[46].veinsmobility  posx  ETV
vector 35715  IntersectionExampleScenario.node[46].veinsmobility  posy  ETV
vector 35716  IntersectionExampleScenario.node[46].veinsmobility  speed  ETV
vector 35717  IntersectionExampleScenario.node[46].veinsmobility  acceleration  ETV
vector 35718  IntersectionExampleScenario.node[46].veinsmobility  co2emission  ETV
vector 35721  IntersectionExampleScenario.node[47].veinsmobility  posx  ETV
vector 35722  IntersectionExampleScenario.node[47].veinsmobility  posy  ETV
vector 35723  IntersectionExampleScenario.node[47].veinsmobility  speed  ETV
35627	1133769 7233 9228 13188 156 214 233 0.97223939240464 11.648172402475 604.01362567383 2970.6149157027
35626	1141002 6565 9228 13188 156 214 233 -7.1630792617798 4 38.680875778198 471.71272919869
35625	1147567 6916 9209 13188 155.75 214 234 0 15.64999961853 2189.1655395031 31036.837682078
35624	1154483 8168 9190 13188 155.5 214 235 483.14999389648 734.76512145996 122005.44032288 64456686.227856
35623	1162651 8151 9190 13188 155.5 214 235 184.17810058594 486.85000610352 99106.240356445 43840031.146787
vector 35724  IntersectionExampleScenario.node[47].veinsmobility  acceleration  ETV
vector 35725  IntersectionExampleScenario.node[47].veinsmobility  co2emission  ETV
35620	1170971 7301 9190 13222 155.5 214.5 237 0.973 11.450879080643 606.55297605616 3009.5090930053
35619	1178272 6854 9190 13222 155.5 214.5 237 -6.8379721641541 4 36.98334312439 473.99119900621
35618	1185126 7086 9173 13222 155.25 214.5 238 0 15.375 2208.7748166323 30686.121098198
35617	1192212 8317 9156 13222 155 214.5 239 486.85000610352 486.85000610352 116357.15145874 56648479.897875
35616	1200529 8312 9156 13222 155 214.5 239 237.32635498047 785.82187652588 122790.03217316 67309862.810439
vector 35728  IntersectionExampleScenario.node[48].veinsmobility  posx  ETV
vector 35729  IntersectionExampleScenario.node[48].veinsmobility  posy  ETV
vector 35730  IntersectionExampleScenario.node[48].veinsmobility  speed  ETV
vector 35731  IntersectionExampleScenario.node[48].veinsmobility  acceleration  ETV
vector 35732  IntersectionExampleScenario.node[48].veinsmobility  co2emission  ETV
35641	1209242 6014 10387 13438 172 217.5 183 0.973 11.200708441096 518.72402681044 2595.7836270568
35640	1215256 6016 10387 13438 172 217.5 183 -2.0698223114014 2.5 35.455564498901 270.89603832613
35639	1221272 6253 10370 13438 171.75 217.5 184 4.1005530357361 15.02499961853 2201.7523441315 28519.344905398
35638	1227525 6467 10353 13438 171.5 217.5 185 483.14999389648 733.13870239258 98179.577713013 53153226.946755
35637	1233992 6438 10353 13438 171.5 217.5 185 184.17810058594 486.97283935547 74554.858642578 31900513.612334
vector 35735  IntersectionExampleScenario.node[49].veinsmobility  posx  ETV
vector 35736  IntersectionExampleScenario.node[49].veinsmobility  posy  ETV
vector 35737  IntersectionExampleScenario.node[49].veinsmobility  speed  ETV
vector 35738  IntersectionExampleScenario.node[49].veinsmobility  acceleration  ETV
vector 35739  IntersectionExampleScenario.node[49].veinsmobility  co2emission  ETV
35648	1240831 5629 10725 13581 177.5 219.25 168 0.973 11.200708441096 533.03210252817 2952.1661445244
35647	1246460 5270 10725 13581 177.5 219.25 168 -3.4073143005371 2.5 36.813589096069 303.37768288984
35646	1251730 5696 10710 13581 177.25 219.25 169 5.6500000953674 15.02499961853 2222.9873380661 30198.330955848
35645	1257426 5949 10695 13581 177 219.25 170 483.14999389648 483.14999389648 82135.498962402 39683765.822369
35644	1263375 5919 10695 13581 177 219.25 170 184.17810058594 734.82485961914 76072.772338867 38313172.933757
35662	1269294 5372 11021 13833 182.5 222.25 160 0.973 11.313366525471 491.86523699611 2670.3504974896
35661	1274666 5177 11021 13833 182.5 222.25 160 -3.5863380432129 2.5 37.15309715271 242.69704119699
35660	1279843 5362 11004 13833 182.25 222.25 161 5.6500000953674 15.211181640625 2202.3013725281 30936.955447666
35659	1285205 5665 10987 13833 182 222.25 162 483.14999389648 731.91291809082 86755.98638916 47422590.803743
35658	1290870 5646 10987 13833 182 222.25 162 184.17810058594 486.85000610352 64473.640991211 27452560.586938
vector 35742  IntersectionExampleScenario.node[50].veinsmobility  posx  ETV
vector 35743  IntersectionExampleScenario.node[50].veinsmobility  posy  ETV
vector 35744  IntersectionExampleScenario.node[50].veinsmobility  speed  ETV
vector 35745  IntersectionExampleScenario.node[50].veinsmobility  acceleration  ETV
vector 35746  IntersectionExampleScenario.node[50].veinsmobility  co2emission  ETV
vector 35749  IntersectionExampleScenario.node[51].veinsmobility  posx  ETV
vector 35750  IntersectionExampleScenario.node[51].veinsmobility  posy  ETV
vector 35751  IntersectionExampleScenario.node[51].veinsmobility  speed  ETV
vector 35752  IntersectionExampleScenario.node[51].veinsmobility  acceleration  ETV
vector 35753  IntersectionExampleScenario.node[51].veinsmobility  co2emission  ETV
35669	1297318 5780 11160 14263 184.5 226.75 170 0.973 11.200708441096 499.73143807487 2493.5663157782
35668	1303098 5204 11160 14263 184.5 226.75 170 -3.3153610229492 2.5 35.625318527222 253.18228875596
35667	1308302 5677 11142 14263 184.25 226.75 171 5.6500000953674 15.02499961853 2254.4006099701 30877.605307016
35666	1313979 6015 11123 14263 184 226.75 172 237.38208007812 483.14999389648 74583.126800537 33310931.699252
35665	1319994 5980 11123 14263 184 226.75 172 166.078125 483.31506347656 67237.538269043 28357127.110402
vector 35756  IntersectionExampleScenario.node[52].veinsmobility  posx  ETV
vector 35757  IntersectionExampleScenario.node[52].veinsmobility  posy  ETV
vector 35758  IntersectionExampleScenario.node[52].veinsmobility  speed  ETV
vector 35759  IntersectionExampleScenario.node[52].veinsmobility  acceleration  ETV
vector 35760  IntersectionExampleScenario.node[52].veinsmobility  co2emission  ETV
35655	1326375 6551 10867 14632 180 230.5 203 0.973 11.36141391502 560.12740770487 2773.0833560374
35654	1332926 6043 10867 14632 180 230.5 203 -6.7711477279663 4 36.98334312439 450.59403005823
35653	1338969 6359 10851 14632 179.75 230.5 204 0 15.25 2175.7520129681 29985.058215833
35652	1345328 7168 10836 14632 179.5 230.5 205 486.63604736328 785.82187652588 114347.73535919 65721122.036746
35651	1352496 7113 10836 14632 179.5 230.5 205 237.36993408203 483.14999389648 90721.900360107 41171367.610333
vector 35763  IntersectionExampleScenario.node[53].veinsmobility  posx  ETV
vector 35764  IntersectionExampleScenario.node[53].veinsmobility  posy  ETV
vector 35765  IntersectionExampleScenario.node[53].veinsmobility  speed  ETV
vector 35766  IntersectionExampleScenario.node[53].veinsmobility  acceleration  ETV
vector 35767  IntersectionExampleScenario.node[53].veinsmobility  co2emission  ETV
vector 35770  IntersectionExampleScenario.node[54].veinsmobility  posx  ETV
vector 35771  IntersectionExampleScenario.node[54].veinsmobility  posy  ETV
vector 35772  IntersectionExampleScenario.node[54].veinsmobility  speed  ETV
vector 35773  IntersectionExampleScenario.node[54].veinsmobility  acceleration  ETV
vector 35774  IntersectionExampleScenario.node[54].veinsmobility  co2emission  ETV
vector 35777  IntersectionExampleScenario.node[55].veinsmobility  posx  ETV
vector 35778  IntersectionExampleScenario.node[55].veinsmobility  posy  ETV
vector 35779  IntersectionExampleScenario.node[55].veinsmobility  speed  ETV
vector 35780  IntersectionExampleScenario.node[55].veinsmobility  acceleration  ETV
vector 35781  IntersectionExampleScenario.node[55].veinsmobility  co2emission  ETV
vector 35784  IntersectionExampleScenario.node[56].veinsmobility  posx  ETV
vector 35785  IntersectionExampleScenario.node[56].veinsmobility  posy  ETV
vector 35786  IntersectionExampleScenario.node[56].veinsmobility  speed  ETV
vector 35787  IntersectionExampleScenario.node[56].veinsmobility  acceleration  ETV
vector 35788  IntersectionExampleScenario.node[56].veinsmobility  co2emission  ETV
vector 35791  IntersectionExampleScenario.node[57].veinsmobility  posx  ETV
vector 35792  IntersectionExampleScenario.node[57].veinsmobility  posy  ETV
vector 35793  IntersectionExampleScenario.node[57].veinsmobility  speed  ETV
35676	1361445 6585 11674 16093 192.75 244.5 208 0.94600815583079 12.353032912318 607.5521658323 3411.7475350445
35675	1368030 6259 11674 16093 192.75 244.5 208 -7.3679914474487 4 41.566686630249 516.58972769547
35674	1374289 6345 11657 16093 192.5 244.5 209 0 16.625 2212.0086305141 32812.834232691
35673	1380634 7314 11640 16093 192.25 244.5 210 184.17810058594 733.03507995605 95346.632293701 47302631.977829
35672	1387948 7351 11640 16093 192.25 244.5 210 486.85000610352 486.85000610352 102238.50128174 49774814.973028
vector 35794  IntersectionExampleScenario.node[57].veinsmobility  acceleration  ETV
vector 35795  IntersectionExampleScenario.node[57].veinsmobility  co2emission  ETV
35683	1395468 6595 11950 16379 196.75 247.25 203 0.973 11.36141391502 552.55960293431 2747.9608793607
35682	1402063 6611 11950 16379 196.75 247.25 203 -3.9594686031342 2.5 37.15309715271 345.83961489757
35681	1408674 6831 11931 16379 196.5 247.25 204 0 15.25 2214.9846585579 29497.527099841
35680	1415505 7138 11912 16379 196.25 247.25 205 177.97814941406 483.28082275391 83480.16116333 35980020.462894
35679	1422643 7165 11912 16379 196.25 247.25 205 486.85000610352 734.40824890137 108232.52246094 58182992.968383
vector 35798  IntersectionExampleScenario.node[58].veinsmobility  posx  ETV
vector 35799  IntersectionExampleScenario.node[58].veinsmobility  posy  ETV
vector 35800  IntersectionExampleScenario.node[58].veinsmobility  speed  ETV
vector 35801  IntersectionExampleScenario.node[58].veinsmobility  acceleration  ETV
vector 35802  IntersectionExampleScenario.node[58].veinsmobility  co2emission  ETV
vector 35805  IntersectionExampleScenario.node[59].veinsmobility  posx  ETV
vector 35806  IntersectionExampleScenario.node[59].veinsmobility  posy  ETV
vector 35807  IntersectionExampleScenario.node[59].veinsmobility  speed  ETV
vector 35808  IntersectionExampleScenario.node[59].veinsmobility  acceleration  ETV
vector 35809  IntersectionExampleScenario.node[59].veinsmobility  co2emission  ETV
35697	1430610 7355 12144 17429 199.25 258.75 239 0.973 12.099024792222 625.11557379842 3263.31851063
35696	1437965 6870 12144 17429 199.25 258.75 239 -7.8777370452881 4 40.038900375366 513.03967753048
35695	1444835 7061 12125 17429 199 258.75 240 0 16.27499961853 2205.5867056847 32071.417647521
35694	1451896 8436 12106 17429 198.75 258.75 241 483.14999389648 483.14999389648 116439.14852905 56257573.901123
35693	1460332 8409 12106 17429 198.75 258.75 241 184.17810058594 731.70051574707 109926.07763672 54196038.986753
35690	1468741 7648 12011 17475 197.5 259.25 248 0.973 11.648172402475 618.37567522566 2997.958064628
35689	1476389 7133 12011 17475 197.5 259.25 248 -7.1763153076172 4 38.511121749878 472.87079648176
35688	1483522 7290 11990 17475 197.25 259.25 249 0 15.64999961853 2202.2181799412 31192.062258032
35687	1490812 8744 11969 17475 197 259.25 250 236.75640869141 486.85000610352 113323.54629517 52485196.363925
35686	1499556 8739 11969 17475 197 259.25 250 483.14999389648 785.82187652588 136313.78357697 76407570.831905
35732	1508295 5659 13362 17544 216.5 260 175 0.973 12.553400930962 572.6179501921 3461.8199665262
35731	1513954 5477 13362 17544 216.5 260 175 -2.2057342529297 2.5 43.773473739624 328.12297438987
35730	1519431 5850 13343 17544 216.25 260 176 3.0138456821442 16.89999961853 2210.2078533173 31448.782476689
35729	1525281 6188 13324 17544 216 260 177 483.14999389648 733.1302947998 93280.904006958 50108598.92906
35728	1531469 6163 13324 17544 216 260 177 184.17810058594 486.85479736328 71441.628143311 30590655.774514
35704	1537632 7533 12473 17744 204 262.25 234 0.973 11.450879080643 583.02365918265 2765.6136609934
35703	1545165 8031 12473 17744 204 262.25 234 -3.9664652347565 2.5 36.98334312439 323.09795095429
35702	1553196 8018 12456 17744 203.75 262.25 235 0 15.375 2210.9255852271 29062.346778751
35701	1561214 8250 12439 17744 203.5 262.25 236 235.1005859375 486.85000610352 106197.73471069 48928246.345197
35700	1569464 8246 12439 17744 203.5 262.25 236 482.98397827148 785.82187652588 130502.88376617 74155812.49302
35739	1577710 5890 13518 17786 218.5 262.75 178 0.973 11.648172402475 576.4522118091 3300.8551784344
35738	1583600 5714 13518 17786 218.5 262.75 178 -4.5 2.5 39.020376205444 397.43650222394
35737	1589314 6015 13497 17786 218.25 262.75 179 4.183436870575 15.64999961853 2287.4589381218 31600.172477409
35736	1595329 6300 13476 17786 218 262.75 180 483.14999389648 483.14999389648 86966.998901367 42018104.988391
35735	1601629 6257 13476 17786 218 262.75 180 166.078125 732.93725585938 78678.900985718 38910876.608216
vector 35812  IntersectionExampleScenario.node[60].veinsmobility  posx  ETV
vector 35813  IntersectionExampleScenario.node[60].veinsmobility  posy  ETV
vector 35814  IntersectionExampleScenario.node[60].veinsmobility  speed  ETV
vector 35815  IntersectionExampleScenario.node[60].veinsmobility  acceleration  ETV
vector 35816  IntersectionExampleScenario.node[60].veinsmobility  co2emission  ETV
vector 35819  IntersectionExampleScenario.node[61].veinsmobility  posx  ETV
vector 35820  IntersectionExampleScenario.node[61].veinsmobility  posy  ETV
vector 35821  IntersectionExampleScenario.node[61].veinsmobility  speed  ETV
vector 35822  IntersectionExampleScenario.node[61].veinsmobility  acceleration  ETV
vector 35823  IntersectionExampleScenario.node[61].veinsmobility  co2emission  ETV
vector 35826  IntersectionExampleScenario.node[62].veinsmobility  posx  ETV
vector 35827  IntersectionExampleScenario.node[62].veinsmobility  posy  ETV
vector 35828  IntersectionExampleScenario.node[62].veinsmobility  speed  ETV
vector 35829  IntersectionExampleScenario.node[62].veinsmobility  acceleration  ETV
vector 35830  IntersectionExampleScenario.node[62].veinsmobility  co2emission  ETV
vector 35833  IntersectionExampleScenario.node[63].veinsmobility  posx  ETV
vector 35834  IntersectionExampleScenario.node[63].veinsmobility  posy  ETV
vector 35835  IntersectionExampleScenario.node[63].veinsmobility  speed  ETV
35760	1609321 5487 14632 18479 230.5 270.5 161 0.973 11.450879080643 481.18488570318 2487.1893935057
35759	1614808 5092 14632 18479 230.5 270.5 161 -3.4716911315918 2.5 36.474081039429 225.794756472
35758	1619900 5379 14608 18479 230.25 270.5 162 5.6500000953674 15.375 2212.0732851028 31010.844655496
35757	1625279 5696 14583 18479 230 270.5 163 483.14999389648 734.23539733887 87481.692001343 47945461.951533
35756	1630975 5683 14583 18479 230 270.5 163 184.17810058594 486.85000610352 64950.398956299 27687187.575456
vector 35836  IntersectionExampleScenario.node[63].veinsmobility  acceleration  ETV
vector 35837  IntersectionExampleScenario.node[63].veinsmobility  co2emission  ETV
vector 35840  IntersectionExampleScenario.node[64].veinsmobility  posx  ETV
vector 35841  IntersectionExampleScenario.node[64].veinsmobility  posy  ETV
vector 35842  IntersectionExampleScenario.node[64].veinsmobility  speed  ETV
vector 35843  IntersectionExampleScenario.node[64].veinsmobility  acceleration  ETV
vector 35844  IntersectionExampleScenario.node[64].veinsmobility  co2emission  ETV
vector 35847  IntersectionExampleScenario.node[65].veinsmobility  posx  ETV
vector 35848  IntersectionExampleScenario.node[65].veinsmobility  posy  ETV
vector 35849  IntersectionExampleScenario.node[65].veinsmobility  speed  ETV
vector 35850  IntersectionExampleScenario.node[65].veinsmobility  acceleration  ETV
vector 35851  IntersectionExampleScenario.node[65].veinsmobility  co2emission  ETV
35711	1637629 8457 12562 18938 205.25 275 280 0.973 11.810082123732 661.73443340365 3146.3386113432
35710	1646086 7424 12562 18938 205.25 275 280 -28.366218566895 4 39.869146347046 1173.7149836098
35709	1653510 7827 12543 18938 205 275 281 0 15.875 2184.2350225449 31649.663193795
35708	1661337 9860 12524 18938 204.75 275 282 486.63604736328 785.82187652588 152342.98638153 84406673.805024
35707	1671197 9800 12524 18938 204.75 275 282 235.62799072266 483.14999389648 128173.53811646 59353137.078557
vector 35854  IntersectionExampleScenario.node[66].veinsmobility  posx  ETV
vector 35855  IntersectionExampleScenario.node[66].veinsmobility  posy  ETV
vector 35856  IntersectionExampleScenario.node[66].veinsmobility  speed  ETV
vector 35857  IntersectionExampleScenario.node[66].veinsmobility  acceleration  ETV
vector 35858  IntersectionExampleScenario.node[66].veinsmobility  co2emission  ETV
vector 35861  IntersectionExampleScenario.node[67].veinsmobility  posx  ETV
vector 35862  IntersectionExampleScenario.node[67].veinsmobility  posy  ETV
vector 35868  IntersectionExampleScenario.node[68].veinsmobility  posx  ETV
vector 35869  IntersectionExampleScenario.node[68].veinsmobility  posy  ETV
vector 35863  IntersectionExampleScenario.node[67].veinsmobility  speed  ETV
35718	1681784 9236 12673 19285 206.75 278.25 287 0.973 11.36141391502 653.53854620996 2864.548543229
35717	1691020 9028 12673 19285 206.75 278.25 287 -4.5 2.5 36.98334312439 415.47779908579
35716	1700048 9218 12654 19285 206.5 278.25 288 0 15.25 2263.0387885226 30742.552485517
35715	1709266 10092 12635 19285 206.25 278.25 289 486.84246826172 806.11563110352 158824.08349609 89758548.203145
35714	1719358 10114 12635 19285 206.25 278.25 289 236.89666748047 483.14999389648 131272.58926392 60754948.65022
vector 35864  IntersectionExampleScenario.node[67].veinsmobility  acceleration  ETV
vector 35865  IntersectionExampleScenario.node[67].veinsmobility  co2emission  ETV
vector 35870  IntersectionExampleScenario.node[68].veinsmobility  speed  ETV
vector 35871  IntersectionExampleScenario.node[68].veinsmobility  acceleration  ETV
vector 35872  IntersectionExampleScenario.node[68].veinsmobility  co2emission  ETV
35725	1729888 8390 13205 19401 214.25 279.25 261 0.973 11.90022389248 645.68207050116 3086.4808806659
35724	1738278 8679 13205 19401 214.25 279.25 261 -3.7124271392822 2.5000009536743 41.227170944214 348.50344942154
35723	1746957 8845 13188 19401 214 279.25 262 0 16 2206.7492289487 29636.086602697
35722	1755802 9168 13171 19401 213.75 279.25 263 483.12789916992 785.82187652588 144841.49550629 81726932.786202
35721	1764970 9196 13171 19401 213.75 279.25 263 483.14999389648 732.93214416504 135105.04360962 70494356.956958
vector 35875  IntersectionExampleScenario.node[69].veinsmobility  posx  ETV
vector 35876  IntersectionExampleScenario.node[69].veinsmobility  posy  ETV
vector 35877  IntersectionExampleScenario.node[69].veinsmobility  speed  ETV
vector 35878  IntersectionExampleScenario.node[69].veinsmobility  acceleration  ETV
vector 35879  IntersectionExampleScenario.node[69].veinsmobility  co2emission  ETV
35753	1774567 7345 14038 19721 224.5 282 231 0.973 11.54047740176 576.70498002469 2783.0220290037
35752	1781912 7702 14038 19721 224.5 282 231 -3.7842426300049 2.5000019073486 37.15309715271 312.95075812957
35751	1789614 7905 14013 19721 224.25 282 232 0 15.5 2217.2698699757 28717.325439324
35750	1797519 8127 13988 19721 224 282 233 236.65185546875 785.82187652588 121932.10901642 68036667.134961
35749	1805646 8153 13988 19721 224 282 233 483.14999389648 483.14999389648 112573.94857788 54390102.568306
vector 35882  IntersectionExampleScenario.node[70].veinsmobility  posx  ETV
vector 35883  IntersectionExampleScenario.node[70].veinsmobility  posy  ETV
vector 35884  IntersectionExampleScenario.node[70].veinsmobility  speed  ETV
vector 35885  IntersectionExampleScenario.node[70].veinsmobility  acceleration  ETV
vector 35886  IntersectionExampleScenario.node[70].veinsmobility  co2emission  ETV
vector 35889  IntersectionExampleScenario.node[71].veinsmobility  posx  ETV
vector 35890  IntersectionExampleScenario.node[71].veinsmobility  posy  ETV
vector 35891  IntersectionExampleScenario.node[71].veinsmobility  speed  ETV
35746	1814432 8169 13942 20690 223.5 290.25 268 0.97223939240464 11.648172402475 640.51276922157 3031.200919937
35745	1822601 7348 13942 20690 223.5 290.25 268 -7.1630792617798 4 38.680875778198 475.21272998936
35744	1829949 7739 13919 20690 223.25 290.25 269 0 15.64999961853 2217.0011982918 31576.668155059
35743	1837688 9415 13896 20690 223 290.25 270 184.17810058594 734.53523254395 123790.3727417 60940596.105146
35742	1847103 9449 13896 20690 223 290.25 270 486.85000610352 486.85000610352 131449.50164795 63996190.679608
vector 35892  IntersectionExampleScenario.node[71].veinsmobility  acceleration  ETV
vector 35893  IntersectionExampleScenario.node[71].veinsmobility  co2emission  ETV
35774	1856721 6816 15383 20798 238.25 291.25 213 0.973 11.90022389248 582.68131847407 3048.824802563
35773	1863537 7041 15383 20798 238.25 291.25 213 -3.9583501815796 2.5000009536743 39.869146347046 352.49324873982
35772	1870578 7237 15356 20798 238 291.25 214 0 16 2204.0922319293 29785.534999027
35771	1877815 7492 15329 20798 237.75 291.25 215 184.17810058594 486.98416137695 88760.526000977 38545782.148338
35770	1885307 7523 15329 20798 237.75 291.25 215 236.83422851562 486.85000610352 96465.343170166 44335404.21712
35795	1892830 6348 16122 21066 244.75 294 198 0.973 11.450879080643 546.62738715927 2740.2517254325
35794	1899178 6493 16122 21066 244.75 294 198 -2.2403755187988 2.5 37.32285118103 290.58714416317
35793	1905671 6708 16093 21066 244.5 294 199 2.3602695465088 15.375 2205.513051033 28094.49386413
35792	1912379 6963 16064 21066 244.25 294 200 184.17810058594 486.85000610352 80975.964202881 34641941.78891
35791	1919342 6963 16064 21066 244.25 294 200 237.23101806641 486.85000610352 88855.401092529 40530696.073831
vector 35896  IntersectionExampleScenario.node[72].veinsmobility  posx  ETV
vector 35897  IntersectionExampleScenario.node[72].veinsmobility  posy  ETV
vector 35898  IntersectionExampleScenario.node[72].veinsmobility  speed  ETV
vector 35899  IntersectionExampleScenario.node[72].veinsmobility  acceleration  ETV
vector 35900  IntersectionExampleScenario.node[72].veinsmobility  co2emission  ETV
vector 35903  IntersectionExampleScenario.node[73].veinsmobility  posx  ETV
vector 35904  IntersectionExampleScenario.node[73].veinsmobility  posy  ETV
vector 35905  IntersectionExampleScenario.node[73].veinsmobility  speed  ETV
35802	1926938 5398 17192 21345 256.25 297 164 0.973 11.450879080643 506.33768846976 2873.8134207479
35801	1932336 5293 17192 21345 256.25 297 164 -3.360782623291 2.5 37.15309715271 248.74214207556
35800	1937629 5489 17169 21345 256 297 165 5.6500000953674 15.375 2201.9707431793 30216.52908429
35799	1943118 5780 17146 21345 255.75 297 166 184.17810058594 486.88079833984 66096.719940186 28112313.121901
35798	1948898 5804 17146 21345 255.75 297 166 238.27581787109 486.85000610352 72352.210601807 32506501.470352
vector 35906  IntersectionExampleScenario.node[73].veinsmobility  acceleration  ETV
vector 35907  IntersectionExampleScenario.node[73].veinsmobility  co2emission  ETV
vector 35910  IntersectionExampleScenario.node[74].veinsmobility  posx  ETV
vector 35911  IntersectionExampleScenario.node[74].veinsmobility  posy  ETV
vector 35912  IntersectionExampleScenario.node[74].veinsmobility  speed  ETV
vector 35913  IntersectionExampleScenario.node[74].veinsmobility  acceleration  ETV
vector 35914  IntersectionExampleScenario.node[74].veinsmobility  co2emission  ETV
35781	1955272 7888 15549 22009 239.75 304.25 259 0.973 11.810082123732 628.80999323427 3080.4102480052
35780	1963160 7318 15549 22009 239.75 304.25 259 -7.7750473022461 4 38.511121749878 481.76489070548
35779	1970478 7469 15520 22009 239.5 304.25 260 0 15.875 2181.7101407051 30752.64095389
35778	1977947 9063 15491 22009 239.25 304.25 261 486.85000610352 734.25172424316 135296.04530334 71228363.962605
35777	1987010 9125 15491 22009 239.25 304.25 261 486.63604736328 785.82187652588 142057.02851105 79394556.447685
35767	1996135 8549 15004 22031 234.5 304.5 281 0.973 11.36141391502 644.43018125016 2886.5298730406
35766	2004684 7631 15004 22031 234.5 304.5 281 -26.917621612549 4 37.32285118103 1088.0700351253
35765	2012315 7944 14979 22031 234.25 304.5 282 0 15.25 2206.4890060425 30933.643853556
35764	2020259 9839 14954 22031 234 304.5 283 236.31317138672 483.14999389648 128380.62081909 59363123.040925
35763	2030098 9871 14954 22031 234 304.5 283 177.97814941406 483.36395263672 120849.85522461 53862412.551529
vector 35917  IntersectionExampleScenario.node[75].veinsmobility  posx  ETV
vector 35918  IntersectionExampleScenario.node[75].veinsmobility  posy  ETV
vector 35919  IntersectionExampleScenario.node[75].veinsmobility  speed  ETV
vector 35920  IntersectionExampleScenario.node[75].veinsmobility  acceleration  ETV
vector 35921  IntersectionExampleScenario.node[75].veinsmobility  co2emission  ETV
vector 35924  IntersectionExampleScenario.node[76].veinsmobility  posx  ETV
vector 35925  IntersectionExampleScenario.node[76].veinsmobility  posy  ETV
vector 35926  IntersectionExampleScenario.node[76].veinsmobility  speed  ETV
vector 35927  IntersectionExampleScenario.node[76].veinsmobility  acceleration  ETV
vector 35928  IntersectionExampleScenario.node[76].veinsmobility  co2emission  ETV
35788	2040771 8361 16037 22292 244 307.5 255 0.973 11.200708441096 598.68939812784 2659.5108340667
35787	2049132 8590 16037 22292 244 307.5 255 -3.9204742908478 2.5 35.795072555542 330.69020203934
35786	2057722 8688 16010 22292 243.75 307.5 256 0 15.02499961853 2201.7471834198 28811.433055116
35785	2066410 8986 15983 22292 243.5 307.5 257 486.85000610352 733.16026306152 133652.64865112 70619814.787639
35784	2075396 8968 15983 22292 243.5 307.5 257 486.72790527344 790.18281555176 141578.22319031 80100158.509184
35816	2084364 5880 17892 22402 264 308.75 180 0.973 11.881293066072 587.55178386582 3198.9597982604
35815	2090244 6142 17892 22402 264 308.75 180 -4.5 2.5 40.938577651978 354.16231419301
35814	2096386 6310 17871 22402 263.75 308.75 181 5.1734528541565 15.973764419556 2209.0089249611 29130.108158512
35813	2102696 6362 17849 22402 263.5 308.75 182 483.14999389648 733.07095336914 96746.035552979 52451364.044407
35812	2109058 6346 17849 22402 263.5 308.75 182 184.17810058594 486.85000610352 73767.47756958 31740392.032739
35809	2115404 6513 17380 22423 258.25 309 204 0.973 11.648172402475 571.97153571312 2932.8988160498
35808	2121917 6681 17380 22423 258.25 309 204 -3.5748176574707 2.5 39.529638290405 359.38203179283
35807	2128598 6898 17355 22423 258 309 205 0 15.64999961853 2216.2076102495 29590.213273595
35806	2135496 7198 17330 22423 257.75 309 206 235.38140869141 486.85000610352 91944.926361084 42098403.49849
35805	2142694 7200 17330 22423 257.75 309 206 483.14999389648 785.82187652588 115565.89783478 66690996.062888
35823	2149894 5979 17959 22567 264.75 310.75 185 0.973 11.90022389248 557.2107567481 3046.7401479871
35822	2155873 5991 17959 22567 264.75 310.75 185 -3.2442054748535 2.5 41.057416915894 313.67372410521
35821	2161864 6210 17936 22567 264.5 310.75 186 4.6672620773315 16 2210.8508954048 29576.965052125
35820	2168074 6538 17913 22567 264.25 310.75 187 236.31225585938 486.85000610352 82933.080963135 37779753.581796
35819	2174612 6536 17913 22567 264.25 310.75 187 483.14999389648 785.82187652588 106162.33443451 62051817.453997
35851	2181148 5183 18938 22719 275 312.75 152 0.973 11.990504229548 479.11866468422 2619.9182317218
35850	2186331 5124 18938 22719 275 312.75 152 -3.0985794067383 2.5 39.529638290405 198.67869284464
35849	2191455 5094 18911 22719 274.75 312.75 153 5.6500000953674 16.125 2220.4461975098 32930.099598213
35848	2196549 5391 18884 22719 274.5 312.75 154 483.14999389648 483.14999389648 74405.099060059 35948823.156735
35847	2201940 5366 18884 22719 274.5 312.75 154 184.17810058594 734.00366210938 69055.299057007 35065913.080505
vector 35931  IntersectionExampleScenario.node[77].veinsmobility  posx  ETV
vector 35932  IntersectionExampleScenario.node[77].veinsmobility  posy  ETV
vector 35933  IntersectionExampleScenario.node[77].veinsmobility  speed  ETV
vector 35934  IntersectionExampleScenario.node[77].veinsmobility  acceleration  ETV
vector 35935  IntersectionExampleScenario.node[77].veinsmobility  co2emission  ETV
35872	2207707 5342 19343 23100 278.75 317.5 156 0.973 11.54047740176 466.15982120664 2342.423113526
35871	2213049 4684 19343 23100 278.75 317.5 156 -3.0623931884766 2.5 37.492597579956 180.55984296702
35870	2217733 5265 19314 23100 278.5 317.5 157 5.6500000953674 15.5 2221.0238161087 32010.779935585
35869	2222998 5531 19285 23100 278.25 317.5 158 486.85000610352 486.85000610352 76922.300964355 37449622.693993
35868	2228529 5520 19285 23100 278.25 317.5 158 235.65802001953 785.82187652588 82274.189613342 47050363.778562
35837	2234049 6304 18504 23286 270.75 319.75 197 0.973 12.099024792222 584.24957379842 3223.55589263
35836	2240353 5988 18504 23286 270.75 319.75 197 -7.8776445388794 4 40.038900375366 513.03881719338
35835	2246341 6180 18479 23286 270.5 319.75 198 0 16.27499961853 2205.5864975452 32071.414867027
35834	2252521 6941 18454 23286 270.25 319.75 199 238.29949951172 785.82187652588 102911.11850739 57263435.962409
35833	2259462 6967 18454 23286 270.25 319.75 199 483.14999389648 483.14999389648 96146.8487854 46453349.403832
35844	2266429 6276 18858 23427 274.25 321.75 191 0.96333723109819 12.099024792222 574.48405238094 3153.9868740628
35843	2272705 6536 18858 23427 274.25 321.75 191 -4.5 2.5 40.208654403687 411.36798453234
35842	2279241 6576 18831 23427 274 321.75 192 0 16.27499961853 2255.1369481497 32236.086818793
35841	2285817 6738 18804 23427 273.75 321.75 193 236.56719970703 795.46562957764 100947.23950195 57076798.522393
35840	2292555 6756 18804 23427 273.75 321.75 193 483.14999389648 483.14999389648 93247.948822021 45052745.904219
vector 35938  IntersectionExampleScenario.node[78].veinsmobility  posx  ETV
vector 35939  IntersectionExampleScenario.node[78].veinsmobility  posy  ETV
vector 35940  IntersectionExampleScenario.node[78].veinsmobility  speed  ETV
vector 35941  IntersectionExampleScenario.node[78].veinsmobility  acceleration  ETV
vector 35942  IntersectionExampleScenario.node[78].veinsmobility  co2emission  ETV
35858	2299712 6497 19045 23691 276 325.25 198 0.973 11.200708441096 556.84941835472 2738.4655202037
35857	2306209 6205 19045 23691 276 325.25 198 -4.1638450622559 2.5000019073486 35.795072555542 360.92966722761
35856	2312414 6663 19018 23691 275.75 325.25 199 3.5829379558563 15.02499961853 2274.3814179897 29047.961964527
35855	2319077 6981 18991 23691 275.5 325.25 200 486.85000610352 809.87969207764 115077.76821899 68441429.543161
35854	2326058 6998 18991 23691 275.5 325.25 200 238.19189453125 483.14999389648 88199.245025635 39914341.215222
35865	2333056 6296 19314 23767 278.5 326.25 192 0.973 11.90022389248 569.36776075962 2980.6546519223
35864	2339352 6289 19314 23767 278.5 326.25 192 -4.5 2.5 39.699392318726 362.41749617881
35863	2345641 6452 19285 23767 278.25 326.25 193 3.4259004592896 16 2324.8034176826 31409.917591775
35862	2352093 6771 19258 23767 278 326.25 194 483.14999389648 813.44454193115 111738.6574173 66626727.442088
35861	2358864 6787 19258 23767 278 326.25 194 483.14999389648 733.77404785156 102005.25863647 54662186.198991
vector 35945  IntersectionExampleScenario.node[79].veinsmobility  posx  ETV
vector 35946  IntersectionExampleScenario.node[79].veinsmobility  posy  ETV
vector 35947  IntersectionExampleScenario.node[79].veinsmobility  speed  ETV
vector 35948  IntersectionExampleScenario.node[79].veinsmobility  acceleration  ETV
vector 35949  IntersectionExampleScenario.node[79].veinsmobility  co2emission  ETV
vector 35952  IntersectionExampleScenario.node[80].veinsmobility  posx  ETV
vector 35953  IntersectionExampleScenario.node[80].veinsmobility  posy  ETV
vector 35954  IntersectionExampleScenario.node[80].veinsmobility  speed  ETV
vector 35955  IntersectionExampleScenario.node[80].veinsmobility  acceleration  ETV
vector 35956  IntersectionExampleScenario.node[80].veinsmobility  co2emission  ETV
vector 35959  IntersectionExampleScenario.node[81].veinsmobility  posx  ETV
vector 35960  IntersectionExampleScenario.node[81].veinsmobility  posy  ETV
35830	2366607 8125 18224 24446 267.75 334.75 269 0.973 12.099024792222 654.89459736804 3289.9711705006
35829	2374732 7632 18224 24446 267.75 334.75 269 -7.5260181427002 4 40.378400802612 500.55571852035
35828	2382364 7660 18201 24446 267.5 334.75 270 0 16.27499961853 2196.8868556023 31931.422608909
35827	2390024 9461 18178 24446 267.25 334.75 271 184.17810058594 486.85000610352 116299.48901367 52011259.571756
35826	2399485 9470 18178 24446 267.25 334.75 271 238.21850585938 486.85000610352 123877.91925049 57720660.928862
vector 35961  IntersectionExampleScenario.node[81].veinsmobility  speed  ETV
vector 35962  IntersectionExampleScenario.node[81].veinsmobility  acceleration  ETV
vector 35963  IntersectionExampleScenario.node[81].veinsmobility  co2emission  ETV
35879	2409202 7227 19605 24584 281 336.75 224 0.973 11.200708441096 567.68647414724 2685.6826263338
35878	2416429 7481 19605 24584 281 336.75 224 -3.9381487369537 2.5 36.304327011108 326.93330053047
35877	2423910 7743 19576 24584 280.75 336.75 225 0 15.02499961853 2213.6828788444 28846.657950637
35876	2431653 7869 19546 24584 280.5 336.75 226 184.17810058594 732.91218566895 101942.53952026 50236363.049258
35875	2439522 7911 19546 24584 280.5 336.75 226 486.85000610352 486.85000610352 110028.10137939 53567181.828116
vector 35966  IntersectionExampleScenario.node[82].veinsmobility  posx  ETV
vector 35967  IntersectionExampleScenario.node[82].veinsmobility  posy  ETV
vector 35968  IntersectionExampleScenario.node[82].veinsmobility  speed  ETV
vector 35973  IntersectionExampleScenario.node[83].veinsmobility  posx  ETV
vector 35974  IntersectionExampleScenario.node[83].veinsmobility  posy  ETV
vector 35969  IntersectionExampleScenario.node[82].veinsmobility  acceleration  ETV
vector 35970  IntersectionExampleScenario.node[82].veinsmobility  co2emission  ETV
vector 35975  IntersectionExampleScenario.node[83].veinsmobility  speed  ETV
vector 35976  IntersectionExampleScenario.node[83].veinsmobility  acceleration  ETV
vector 35977  IntersectionExampleScenario.node[83].veinsmobility  co2emission  ETV
vector 35980  IntersectionExampleScenario.node[84].veinsmobility  posx  ETV
vector 35981  IntersectionExampleScenario.node[84].veinsmobility  posy  ETV
vector 35987  IntersectionExampleScenario.node[85].veinsmobility  posx  ETV
vector 35988  IntersectionExampleScenario.node[85].veinsmobility  posy  ETV
vector 35982  IntersectionExampleScenario.node[84].veinsmobility  speed  ETV
vector 35989  IntersectionExampleScenario.node[85].veinsmobility  speed  ETV
vector 35983  IntersectionExampleScenario.node[84].veinsmobility  acceleration  ETV
vector 35984  IntersectionExampleScenario.node[84].veinsmobility  co2emission  ETV
vector 35990  IntersectionExampleScenario.node[85].veinsmobility  acceleration  ETV
vector 35991  IntersectionExampleScenario.node[85].veinsmobility  co2emission  ETV
vector 35994  IntersectionExampleScenario.node[86].veinsmobility  posx  ETV
vector 35995  IntersectionExampleScenario.node[86].veinsmobility  posy  ETV
vector 35996  IntersectionExampleScenario.node[86].veinsmobility  speed  ETV
vector 35997  IntersectionExampleScenario.node[86].veinsmobility  acceleration  ETV
vector 35998  IntersectionExampleScenario.node[86].veinsmobility  co2emission  ETV
vector 36001  IntersectionExampleScenario.node[87].veinsmobility  posx  ETV
vector 36002  IntersectionExampleScenario.node[87].veinsmobility  posy  ETV
vector 36003  IntersectionExampleScenario.node[87].veinsmobility  speed  ETV
vector 36004  IntersectionExampleScenario.node[87].veinsmobility  acceleration  ETV
vector 36005  IntersectionExampleScenario.node[87].veinsmobility  co2emission  ETV
35900	2449839 6801 21205 25406 295.5 349 215 0.973 11.810082123732 592.55080138711 3063.5958634695
35899	2456640 6286 21205 25406 295.5 349 215 -8.013355255127 4 39.529638290405 489.37670057805
35898	2462926 6529 21182 25406 295.25 349 216 0 15.875 2178.4170484543 31098.377513482
35897	2469455 7525 21158 25406 295 349 217 486.85000610352 733.38046264648 113697.40887451 60591703.720129
35896	2476980 7585 21158 25406 295 349 217 486.63604736328 785.82187652588 120025.47403717 68345318.767508
35886	2484565 7905 19986 25406 284.25 349 260 0.973 11.90022389248 636.78098070338 3142.0436552535
35885	2492470 7370 19986 25406 284.25 349 260 -8.6357622146606 4 39.020376205444 507.82206590308
35884	2499840 7525 19955 25406 284 349 261 0 16 2207.9873185158 31650.641628551
35883	2507365 9169 19924 25406 283.75 349 262 483.14999389648 483.14999389648 126585.29840088 61159686.149769
35882	2516534 9138 19924 25406 283.75 349 262 184.17810058594 732.41050720215 119856.83526611 58956030.125294
35893	2525672 7810 20718 25531 290.5 350.5 241 0.973 11.810082123732 613.51802175069 3066.0813844795
35892	2533482 8139 20718 25531 290.5 350.5 241 -3.7905495166779 2.5000009536743 39.869146347046 360.85594951928
35891	2541621 8153 20690 25531 290.25 350.5 242 0 15.875 2189.5545647386 29908.658131262
35890	2549774 8500 20661 25531 290 350.5 243 235.68029785156 483.14999389648 109336.41018677 50253907.344916
35889	2558274 8466 20661 25531 290 350.5 243 184.17810058594 483.14999389648 101806.19967651 44601131.251811
vector 36008  IntersectionExampleScenario.node[88].veinsmobility  posx  ETV
vector 36009  IntersectionExampleScenario.node[88].veinsmobility  posy  ETV
vector 36010  IntersectionExampleScenario.node[88].veinsmobility  speed  ETV
vector 36011  IntersectionExampleScenario.node[88].veinsmobility  acceleration  ETV
vector 36012  IntersectionExampleScenario.node[88].veinsmobility  co2emission  ETV
35928	2567141 5761 22292 25611 307.5 351.5 177 0.973 12.099024792222 553.11107841986 3156.828056868
35927	2572902 5517 22292 25611 307.5 351.5 177 -2.1327362060547 2.5 40.887662887573 310.94058970911
35926	2578419 5903 22269 25611 307.25 351.5 178 3.854709148407 16.27499961853 2190.7699360847 30048.774579459
35925	2584322 6253 22246 25611 307 351.5 179 486.85000610352 734.38233947754 95111.456588745 51490399.665196
35924	2590575 6245 22246 25611 307 351.5 179 486.85000610352 785.82187652588 101630.06504059 59451536.861221
35921	2596820 6063 22182 25716 306.25 352.75 187 0.973 11.810082123732 553.08333266491 2984.0155873601
35920	2602883 6145 22182 25716 306.25 352.75 187 -2.1541442871094 2.5 39.869146347046 300.12763989563
35919	2609028 6265 22159 25716 306 352.75 188 2.8278231620789 15.875 2191.3254859447 29297.509915007
35918	2615293 6605 22136 25716 305.75 352.75 189 235.51733398438 483.14999389648 83234.855773926 37640036.698108
35917	2621898 6594 22136 25716 305.75 352.75 189 184.17810058594 483.14999389648 76293.672637939 32574522.290895
vector 36015  IntersectionExampleScenario.node[89].veinsmobility  posx  ETV
vector 36016  IntersectionExampleScenario.node[89].veinsmobility  posy  ETV
vector 36017  IntersectionExampleScenario.node[89].veinsmobility  speed  ETV
vector 36022  IntersectionExampleScenario.node[90].veinsmobility  posx  ETV
vector 36023  IntersectionExampleScenario.node[90].veinsmobility  posy  ETV
vector 36018  IntersectionExampleScenario.node[89].veinsmobility  acceleration  ETV
vector 36019  IntersectionExampleScenario.node[89].veinsmobility  co2emission  ETV
vector 36024  IntersectionExampleScenario.node[90].veinsmobility  speed  ETV
35935	2629125 5578 22932 26018 315.5 356.25 164 0.973 10.813314887685 466.55790754985 2266.9998372933
35934	2634703 5374 22932 26018 315.5 356.25 164 -3.8825950622559 2.5 33.927785873413 189.29957599522
35933	2640077 5552 22911 26018 315.25 356.25 165 5.6500000953674 14.4801902771 2215.1774511337 30162.102850193
35932	2645629 5809 22890 26018 315 356.25 166 486.85000610352 486.85000610352 80817.101013184 39345806.121537
35931	2651438 5791 22890 26018 315 356.25 166 236.81988525391 785.82187652588 86342.904754639 49286717.881139
vector 36025  IntersectionExampleScenario.node[90].veinsmobility  acceleration  ETV
vector 36026  IntersectionExampleScenario.node[90].veinsmobility  co2emission  ETV
vector 36029  IntersectionExampleScenario.node[91].veinsmobility  posx  ETV
vector 36030  IntersectionExampleScenario.node[91].veinsmobility  posy  ETV
vector 36031  IntersectionExampleScenario.node[91].veinsmobility  speed  ETV
vector 36032  IntersectionExampleScenario.node[91].veinsmobility  acceleration  ETV
vector 36033  IntersectionExampleScenario.node[91].veinsmobility  co2emission  ETV
35942	2657799 5325 23482 26523 322.5 361.25 156 0.97223939240464 11.648172402475 492.45726987059 2705.1086412497
35941	2663124 5049 23482 26523 322.5 361.25 156 -3.8724403381348 2.5 38.680875778198 247.75684046574
35940	2668173 5212 23463 26523 322.25 361.25 157 5.6500000953674 15.682989120483 2204.144285202 31878.119340825
35939	2673385 5510 23444 26523 322 361.25 158 483.14999389648 732.63325500488 84666.687210083 46315101.668538
35938	2678895 5505 23444 26523 322 361.25 158 184.17810058594 487.05825805664 62850.616088867 26768405.869223
vector 36036  IntersectionExampleScenario.node[92].veinsmobility  posx  ETV
vector 36037  IntersectionExampleScenario.node[92].veinsmobility  posy  ETV
vector 36038  IntersectionExampleScenario.node[92].veinsmobility  speed  ETV
vector 36039  IntersectionExampleScenario.node[92].veinsmobility  acceleration  ETV
vector 36040  IntersectionExampleScenario.node[92].veinsmobility  co2emission  ETV
vector 36043  IntersectionExampleScenario.node[93].veinsmobility  posx  ETV
vector 36044  IntersectionExampleScenario.node[93].veinsmobility  posy  ETV
vector 36045  IntersectionExampleScenario.node[93].veinsmobility  speed  ETV
vector 36046  IntersectionExampleScenario.node[93].veinsmobility  acceleration  ETV
vector 36047  IntersectionExampleScenario.node[93].veinsmobility  co2emission  ETV
35907	2685202 8270 21369 26982 297.25 365.25 273 0.973 11.810082123732 646.1705000891 3120.7142494373
35906	2693472 7681 21369 26982 297.25 365.25 273 -7.4580183029175 4 38.511121749878 545.20417886825
35905	2701153 7723 21345 26982 297 365.25 274 0 15.875 2182.7643301487 31013.085587762
35904	2708876 9618 21320 26982 296.75 365.25 275 486.63604736328 785.82187652588 148990.87421417 82826551.739173
35903	2718494 9547 21320 26982 296.75 365.25 275 235.74822998047 483.14999389648 124638.05447388 57597010.832706
[...]
38906	18273791 7406 153460 158153 1699.5 1749.5 201 235.76733398438 802.70781707764 106798.19262695 61301141.840332
vector 39011  IntersectionExampleScenario.node[517].veinsmobility  posx  ETV
vector 39012  IntersectionExampleScenario.node[517].veinsmobility  posy  ETV
vector 39013  IntersectionExampleScenario.node[517].veinsmobility  speed  ETV
vector 39014  IntersectionExampleScenario.node[517].veinsmobility  acceleration  ETV
vector 39015  IntersectionExampleScenario.node[517].veinsmobility  co2emission  ETV
38931	18281603 5843 154391 158293 1710.5 1751.5 165 0.973 11.450879080643 519.27173022403 2832.2132371281
38930	18287446 5660 154391 158293 1710.5 1751.5 165 -3.9605445861816 2.5 38.680875778198 255.44022834322
38929	18293106 5861 154366 158293 1710.25 1751.5 166 5.6500000953674 15.384245872498 2263.4954843521 31786.695228025
38928	18298967 6157 154341 158293 1710 1751.5 167 483.14999389648 732.72407531738 89020.354019165 48422642.053408
38927	18305124 6167 154341 158293 1710 1751.5 167 169.18048095703 487.03552246094 65469.703155518 27669933.850013
38945	18311291 5725 154665 158407 1713 1753 161 0.973 11.648172402475 519.55615473578 2764.3288681862
38944	18317016 5515 154665 158407 1713 1753 161 -3.3665466308594 2.5 41.057416915894 234.35312846851
38943	18322531 5708 154632 158407 1712.75 1753 162 5.6500000953674 15.930992126465 2297.9316177368 33644.810220438
38942	18328239 6021 154603 158407 1712.5 1753 163 483.14999389648 732.45481872559 86789.189285278 47146500.387393
38941	18334260 6016 154603 158407 1712.5 1753 163 161.08551025391 486.85552978516 63323.932128906 26699541.644076
38952	18340276 5881 154698 158521 1713.25 1754.5 166 0.973 11.047826617805 492.53589607978 2624.6250816558
38951	18346157 5797 154698 158521 1713.25 1754.5 166 -3.1575508117676 2.5 34.606801986694 234.65692140255
38950	18351954 5898 154665 158521 1713 1754.5 167 5.6500000953674 14.810402870178 2210.2584133148 29926.134766894
38949	18357852 6212 154632 158521 1712.75 1754.5 168 235.81225585938 486.85000610352 72793.589416504 32566630.475556
38948	18364064 6208 154632 158521 1712.75 1754.5 168 483.14999389648 785.82187652588 96014.133666992 56711988.997668
vector 39018  IntersectionExampleScenario.node[518].veinsmobility  posx  ETV
vector 39019  IntersectionExampleScenario.node[518].veinsmobility  posy  ETV
vector 39020  IntersectionExampleScenario.node[518].veinsmobility  speed  ETV
vector 39021  IntersectionExampleScenario.node[518].veinsmobility  acceleration  ETV
vector 39022  IntersectionExampleScenario.node[518].veinsmobility  co2emission  ETV
38966	18370678 5854 155434 158958 1719.5 1760 163 0.973 11.450879080643 504.46282205552 2647.3523177315
38965	18376532 5407 155434 158958 1719.5 1760 163 -3.1147747039795 2.5000019073486 37.15309715271 278.05363896113
38964	18381939 5825 155405 158958 1719.25 1760 164 5.6500000953674 15.375 2201.7845463753 30718.015516484
38963	18387764 6092 155376 158958 1719 1760 165 483.14584350586 785.82187652588 94138.863456726 55516474.177646
38962	18393856 6097 155376 158958 1719 1760 165 483.14999389648 732.02307128906 88205.4871521 48124383.223938
vector 39025  IntersectionExampleScenario.node[519].veinsmobility  posx  ETV
vector 39026  IntersectionExampleScenario.node[519].veinsmobility  posy  ETV
vector 39027  IntersectionExampleScenario.node[519].veinsmobility  speed  ETV
vector 39028  IntersectionExampleScenario.node[519].veinsmobility  acceleration  ETV
vector 39029  IntersectionExampleScenario.node[519].veinsmobility  co2emission  ETV
vector 39032  IntersectionExampleScenario.node[520].veinsmobility  posx  ETV
vector 39033  IntersectionExampleScenario.node[520].veinsmobility  posy  ETV
vector 39034  IntersectionExampleScenario.node[520].veinsmobility  speed  ETV
vector 39035  IntersectionExampleScenario.node[520].veinsmobility  acceleration  ETV
vector 39036  IntersectionExampleScenario.node[520].veinsmobility  co2emission  ETV
vector 39039  IntersectionExampleScenario.node[521].veinsmobility  posx  ETV
vector 39040  IntersectionExampleScenario.node[521].veinsmobility  posy  ETV
vector 39041  IntersectionExampleScenario.node[521].veinsmobility  speed  ETV
vector 39042  IntersectionExampleScenario.node[521].veinsmobility  acceleration  ETV
vector 39043  IntersectionExampleScenario.node[521].veinsmobility  co2emission  ETV
vector 39046  IntersectionExampleScenario.node[522].veinsmobility  posx  ETV
vector 39047  IntersectionExampleScenario.node[522].veinsmobility  posy  ETV
vector 39048  IntersectionExampleScenario.node[522].veinsmobility  speed  ETV
vector 39049  IntersectionExampleScenario.node[522].veinsmobility  acceleration  ETV
vector 39050  IntersectionExampleScenario.node[522].veinsmobility  co2emission  ETV
vector 39053  IntersectionExampleScenario.node[523].veinsmobility  posx  ETV
vector 39054  IntersectionExampleScenario.node[523].veinsmobility  posy  ETV
vector 39055  IntersectionExampleScenario.node[523].veinsmobility  speed  ETV
vector 39056  IntersectionExampleScenario.node[523].veinsmobility  acceleration  ETV
vector 39057  IntersectionExampleScenario.node[523].veinsmobility  co2emission  ETV
38938	18401983 8456 154495 160089 1711.5 1775.75 258 0.973 11.36141391502 611.47043491524 2818.0415217225
38937	18410439 7921 154495 160089 1711.5 1775.75 258 -6.8780279159546 4 36.474081039429 458.86769358304
38936	18418360 8048 154468 160089 1711.25 1775.75 259 0 15.25 2183.7552261353 29945.906729975
38935	18426408 9600 154441 160089 1711 1775.75 260 184.17810058594 483.36395263672 110396.31356812 48971987.113897
38934	18436008 9551 154441 160089 1711 1775.75 260 486.85000610352 734.73731994629 135112.27215576 71340160.514204
38959	18445559 8702 154698 160123 1713.25 1776.25 253 0.973 11.54047740176 633.13905947475 2933.1584048672
38958	18454261 8394 154698 160123 1713.25 1776.25 253 -4.5 2.5 38.511121749878 444.85413982317
38957	18462655 8648 154665 160123 1713 1776.25 254 0 15.5 2292.0031963894 32233.474283563
38956	18471303 9404 154632 160123 1712.75 1776.25 255 164.94219970703 733.00364685059 114295.96064758 55835730.102891
38955	18480707 9435 154632 160123 1712.75 1776.25 255 486.85000610352 486.85000610352 124146.7515564 60440846.752963
38980	18490142 7561 155821 160259 1723 1778.5 223 0.973 11.648172402475 581.43439295249 2902.8675926305
38979	18497703 7891 155821 160259 1723 1778.5 223 -3.7161984443665 2.5 38.511121749878 331.16186837692
38978	18505594 8093 155790 160259 1722.75 1778.5 224 0 15.64999961853 2218.7313604709 29582.098808799
38977	18513687 8286 155759 160259 1722.5 1778.5 225 184.17810058594 733.70666503906 100989.95111084 49488007.918819
38976	18521973 8325 155759 160259 1722.5 1778.5 225 486.85000610352 486.85000610352 109541.25137329 53330158.899673
38987	18530298 7862 155980 160454 1724.25 1781.75 231 0.973 11.36141391502 597.28342250667 2889.9132985126
38986	18538160 8172 155980 160454 1724.25 1781.75 231 -4.5 2.5 36.474081039429 426.14535061559
38985	18546332 8227 155947 160454 1724 1781.75 232 0 15.25 2265.1784715652 28615.281465471
38984	18554559 8587 155914 160454 1723.75 1781.75 233 162.90466308594 483.1735534668 93626.988250732 39849527.877129
38983	18563146 8618 155914 160454 1723.75 1781.75 233 486.85000610352 732.17637634277 121801.42579651 64736388.936366
vector 39060  IntersectionExampleScenario.node[524].veinsmobility  posx  ETV
vector 39061  IntersectionExampleScenario.node[524].veinsmobility  posy  ETV
39008	18571920 5529 157949 160663 1746.5 1785.25 156 0.973 12.190355275112 538.3549338614 3211.4419776777
39007	18577449 5291 157949 160663 1746.5 1785.25 156 -3.2888832092285 2.5 41.396924972534 299.48693188312
39006	18582740 5487 157932 160663 1746.25 1785.25 157 5.6500000953674 16.401021957397 2192.929901123 32243.803674169
39005	18588227 5809 157915 160663 1746 1785.25 158 184.17810058594 483.18408203125 62873.768890381 26732835.731566
39004	18594036 5841 157915 160663 1746 1785.25 158 486.85000610352 735.14990234375 84892.891296387 46521007.029571
vector 39062  IntersectionExampleScenario.node[524].veinsmobility  speed  ETV
vector 39063  IntersectionExampleScenario.node[524].veinsmobility  acceleration  ETV
vector 39064  IntersectionExampleScenario.node[524].veinsmobility  co2emission  ETV
vector 39067  IntersectionExampleScenario.node[525].veinsmobility  posx  ETV
vector 39068  IntersectionExampleScenario.node[525].veinsmobility  posy  ETV
vector 39069  IntersectionExampleScenario.node[525].veinsmobility  speed  ETV
vector 39070  IntersectionExampleScenario.node[525].veinsmobility  acceleration  ETV
vector 39071  IntersectionExampleScenario.node[525].veinsmobility  co2emission  ETV
vector 39074  IntersectionExampleScenario.node[526].veinsmobility  posx  ETV
vector 39075  IntersectionExampleScenario.node[526].veinsmobility  posy  ETV
vector 39076  IntersectionExampleScenario.node[526].veinsmobility  speed  ETV
38973	18600768 8561 155821 160885 1723 1788.75 264 0.973 12.099024792222 658.45024522821 3319.5506499039
38972	18609329 7876 155821 160885 1723 1788.75 264 -8.4131336212158 4 40.887662887573 560.91862013314
38971	18617205 8090 155790 160885 1722.75 1788.75 265 0 16.27499961853 2216.1010341644 32708.970364388
38970	18625295 9843 155759 160885 1722.5 1788.75 266 486.85000610352 486.85000610352 129502.10162354 63048098.965836
38969	18635138 9834 155759 160885 1722.5 1788.75 266 235.66223144531 785.82187652588 136132.44470978 73748616.13599
vector 39081  IntersectionExampleScenario.node[527].veinsmobility  posx  ETV
vector 39082  IntersectionExampleScenario.node[527].veinsmobility  posy  ETV
vector 39077  IntersectionExampleScenario.node[526].veinsmobility  acceleration  ETV
vector 39078  IntersectionExampleScenario.node[526].veinsmobility  co2emission  ETV
vector 39083  IntersectionExampleScenario.node[527].veinsmobility  speed  ETV
38994	18645378 8135 156413 160925 1727.5 1789.25 248 0.97223939240464 11.810082123732 619.41175159457 3074.6882003661
38993	18653513 7550 156413 160925 1727.5 1789.25 248 -7.1630792617798 4 38.680875778198 476.878071193
38992	18661063 7742 156378 160925 1727.25 1789.25 249 0 15.875 2184.2048661709 30861.617094532
38991	18668805 9179 156343 160925 1727 1789.25 250 235.25335693359 483.14999389648 112547.44781494 51754183.272954
38990	18677984 9222 156343 160925 1727 1789.25 250 184.17810058594 483.36395263672 105946.36862183 46949104.939248
vector 39088  IntersectionExampleScenario.node[528].veinsmobility  posx  ETV
vector 39089  IntersectionExampleScenario.node[528].veinsmobility  posy  ETV
vector 39084  IntersectionExampleScenario.node[527].veinsmobility  acceleration  ETV
vector 39085  IntersectionExampleScenario.node[527].veinsmobility  co2emission  ETV
vector 39090  IntersectionExampleScenario.node[528].veinsmobility  speed  ETV
vector 39091  IntersectionExampleScenario.node[528].veinsmobility  acceleration  ETV
vector 39092  IntersectionExampleScenario.node[528].veinsmobility  co2emission  ETV
vector 39095  IntersectionExampleScenario.node[529].veinsmobility  posx  ETV
vector 39096  IntersectionExampleScenario.node[529].veinsmobility  posy  ETV
vector 39097  IntersectionExampleScenario.node[529].veinsmobility  speed  ETV
vector 39098  IntersectionExampleScenario.node[529].veinsmobility  acceleration  ETV
vector 39099  IntersectionExampleScenario.node[529].veinsmobility  co2emission  ETV
39015	18688189 5837 158293 161223 1751.5 1792.75 166 0.973 11.810082123732 556.91147666967 3289.228855425
39014	18694026 5580 158293 161223 1751.5 1792.75 166 -3.6648578643799 2.5 39.869146347046 344.72699247287
39013	18699606 5847 158274 161223 1751.25 1792.75 167 5.6500000953674 15.875 2190.2991547585 30432.576385411
39012	18705453 6210 158255 161223 1751 1792.75 168 235.18859863281 483.14999389648 73063.603088379 32718990.495517
39011	18711663 6190 158255 161223 1751 1792.75 168 184.17810058594 483.14999389648 66984.676757812 28442259.760221
vector 39102  IntersectionExampleScenario.node[530].veinsmobility  posx  ETV
vector 39103  IntersectionExampleScenario.node[530].veinsmobility  posy  ETV
vector 39104  IntersectionExampleScenario.node[530].veinsmobility  speed  ETV
vector 39105  IntersectionExampleScenario.node[530].veinsmobility  acceleration  ETV
vector 39106  IntersectionExampleScenario.node[530].veinsmobility  co2emission  ETV
39001	18718259 7187 157870 161875 1745.25 1800 220 0.973 11.648172402475 563.87440222657 2888.0291249494
39000	18725446 6852 157870 161875 1745.25 1800 220 -8.4908542633057 4 38.001882553101 493.50280433506
38999	18732298 6877 157855 161875 1745 1800 221 0 15.64999961853 1889.0174181461 26359.605670259
38998	18739175 8198 157840 161875 1744.75 1800 222 317.23889160156 785.82187652588 118999.80658722 66639675.280209
38997	18747373 8213 157840 161875 1744.75 1800 222 483.14999389648 483.14999389648 107259.29864502 51822329.485682
39022	18755586 5381 158696 161875 1756.75 1800 174 0.97223939240464 11.648172402475 347.21765663041 1522.7834837652
39021	18760967 5055 158696 161875 1756.75 1800 174 -7.1630792617798 2.5 -22.60000038147 315.45587019556
39020	18766022 5238 158675 161875 1756.5 1800 175 0 15.64999961853 1147.0844397545 16135.149040761
39019	18771260 6485 158654 161875 1756.25 1800 176 184.17810058594 471.60000610352 70205.955627441 29687334.489724
39018	18777745 6512 158654 161875 1756.25 1800 176 486.85000610352 486.85000610352 85685.601074219 41716035.405967
39029	18784257 5476 159101 161875 1762 1800 153 0.97223939240464 11.810082123732 494.81712835392 2823.9172122234
39028	18789733 5240 159101 161875 1762 1800 153 -3.3224430084229 2.5 38.680875778198 281.07750478256
39027	18794973 5359 159082 161875 1761.75 1800 154 5.6500000953674 15.875 2088.4749999046 29709.721009137
39026	18800332 5732 159063 161875 1761.5 1800 155 486.85000610352 709.17175292969 82126.901199341 44211216.694885
39025	18806064 5730 159063 161875 1761.5 1800 155 486.73587036133 785.82187652588 89241.509803772 53074185.615939
39036	18811794 4858 159313 161875 1765 1800 141 0.973 12.099024792222 491.75559811449 2970.5290800528
39035	18816652 4950 159313 161875 1765 1800 141 -2.1821937561035 2.5 42.249570846558 290.52566292995
39034	18821602 5098 159295 161875 1764.75 1800 142 4.9159488677979 16.27499961853 1784.8206067085 24477.765601741
39033	18826700 5277 159276 161875 1764.5 1800 143 345.13482666016 785.82187652588 81235.18573761 48346727.066641
39032	18831977 5290 159276 161875 1764.5 1800 143 483.14999389648 483.14999389648 69090.449127197 33381050.074111
39043	18837267 3981 159605 161875 1769.25 1800 124 0.973 11.648172402475 282.86085194957 1423.5892475629
39042	18841248 4612 159605 161875 1769.25 1800 124 -3.9498527050018 2.5 -21.428684592247 191.28602844115
39041	18845860 4595 159587 161875 1769 1800 125 0 15.64999961853 1118.4700066298 14048.164663642
39040	18850455 4636 159568 161875 1768.75 1800 126 184.17810058594 463.89486694336 45691.946624756 17722775.594572
39039	18855091 4661 159568 161875 1768.75 1800 126 486.85000610352 486.85000610352 61343.100769043 29864888.983817
39050	18859752 3897 159694 161875 1770.5 1800 119 0.973 11.648172402475 293.49541764437 1469.4974298582
39049	18863649 3795 159694 161875 1770.5 1800 119 -7.03919506073 2.5 -22.60000038147 321.83645047111
39048	18867444 3978 159675 161875 1770.25 1800 120 0 15.64999961853 1147.0747878551 16108.17564317
39047	18871422 4475 159656 161875 1770 1800 121 486.85000610352 486.85000610352 58908.850738525 28679774.341602
39046	18875897 4471 159656 161875 1770 1800 121 498.39999389648 785.82187652588 73132.370903015 45460079.93704
39057	18880368 3830 159755 161875 1771.25 1800 116 0.973 11.200708441096 273.84384984727 1306.1406301941
39056	18884198 4344 159755 161875 1771.25 1800 116 -4.5 2.5 -14.256609916687 213.28567966433
39055	18888542 4310 159734 161875 1771 1800 117 2.0858476161957 15.02499961853 1135.7146074772 13779.551192892
39054	18892852 4314 159713 161875 1770.75 1800 118 166.078125 449.89041137695 39562.067443848 14322826.326104
39053	18897166 4365 159713 161875 1770.75 1800 118 486.85000610352 486.85000610352 57448.300720215 27968705.556273
39064	18901531 2088 160693 161875 1785.75 1800 58 0.973 11.648172402475 215.48385363664 1353.1104685625
39063	18903619 2101 160693 161875 1785.75 1800 58 -2.0975685119629 2.5 30.317544937134 117.10673953589
39062	18905720 2165 160678 161875 1785.5 1800 59 5.6500000953674 15.64999961853 817.70387363434 11746.711637885
39061	18907885 2220 160663 161875 1785.25 1800 60 486.85000610352 486.85000610352 29211.000366211 14221375.70658
39060	18910105 2213 160663 161875 1785.25 1800 60 585.94616699219 785.82187652588 41718.601081848 29242936.645436
39071	18912318 1788 160832 161875 1788 1800 49 0.973 10.280015625291 205.3122828418 1203.936338224
39070	18914106 1711 160832 161875 1788 1800 49 -4.5 2.5 38.347440719604 138.3449135751
39069	18915817 1846 160815 161875 1787.75 1800 50 5.6500000953674 15.283333778381 581.57836341858 7458.355744253
39068	18917663 1886 160798 161875 1787.5 1800 51 483.14999389648 483.14999389648 24640.649688721 11905129.746711
39067	18919549 1874 160798 161875 1787.5 1800 51 184.17810058594 324.78979492188 12298.766052246 3060729.9610656
39078	18921423 1619 160904 161875 1789 1800 45 0.973 11.34405798016 187.4332747361 1206.6244529475
39077	18923042 1600 160904 161875 1789 1800 45 -0.79045867919922 2.5 39.201772689819 90.07007036416
39076	18924642 1700 160885 161875 1788.75 1800 46 5.6500000953674 15.499238014221 527.02524089813 6546.5696824228
39075	18926342 1738 160866 161875 1788.5 1800 47 483.14999389648 483.14999389648 22708.049713135 10971394.080302
39074	18928080 1729 160866 161875 1788.5 1800 47 162.00311279297 288.83654785156 10054.399597168 2219773.9132776
39085	18929809 1584 160945 161875 1789.5 1800 43 1.5895547304249 10.756497587458 169.40885789125 1044.1387261811
39084	18931393 1537 160945 161875 1789.5 1800 43 -0.14073944091797 2.5 34.437170028687 87.545264915421
39083	18932930 1619 160925 161875 1789.25 1800 44 5.6500000953674 14.39999961853 564.31565284729 7525.4162716283
39082	18934549 1663 160904 161875 1789 1800 45 483.14999389648 483.14999389648 21741.749725342 10504526.247098
39081	18936212 1652 160904 161875 1789 1800 45 213.88439941406 350.55657958984 12353.093811035 3474361.2147425
39092	18937864 1509 160987 161875 1790 1800 41 1.5237915469079 11.200708441096 175.55148503522 1161.6155329495
39091	18939373 1443 160987 161875 1790 1800 41 -0.17160415649414 2.5 36.813970565796 93.81730045463
39090	18940816 1543 160966 161875 1789.75 1800 42 5.6500000953674 15.02499961853 552.10279178619 7594.1645948365
39089	18942359 1590 160945 161875 1789.5 1800 43 486.85000610352 486.85000610352 20934.550262451 10191985.923049
39088	18943949 1589 160945 161875 1789.5 1800 43 657.10731506348 790.18281555176 31477.674789429 23118746.451972
39099	18945538 1291 161117 161875 1791.5 1800 35 1.5409949253449 12.099024792222 184.32494353904 1416.1047979649
39098	18946829 1157 161117 161875 1791.5 1800 35 -0.19089508056641 2.5 41.74073600769 106.33328102029
39097	18947986 1318 161094 161875 1791.25 1800 36 5.6500000953674 16.27499961853 487.40835952759 7027.3706310336
39096	18949304 1366 161071 161875 1791 1800 37 669.30596923828 785.82187652588 27262.307685852 20137741.729811
39095	18950670 1367 161071 161875 1791 1800 37 483.14999389648 483.14999389648 17876.54977417 8637054.9142804
39106	18952037 735 161437 161875 1795.25 1800 20 1.986667772344 11.200708441096 132.84121745482 1074.1477623448
39105	18952772 587 161437 161875 1795.25 1800 20 -0.044288635253906 2.5 37.364881515503 93.75422144635
39104	18953359 765 161414 161875 1795 1800 21 5.6500000953674 15.02499961853 240.40488624573 2967.7819430656
39103	18954124 811 161391 161875 1794.75 1800 22 738.67620849609 793.78281402588 16977.570472717 13108345.794308
39102	18954935 813 161391 161875 1794.75 1800 22 483.14999389648 483.14999389648 10629.299865723 5135546.1652478
35388	18955748 636 0 161874 0 1800 31 0 23 481 8071
35389	18956384 652 0 161874 0 1800 31 0 197 3074 423638
