file 21788225 1591418882                                        
version 2
run nodebug-37-20200606-00:44:32-5072
attr configname nodebug
attr datetime 20200606-00:44:32
attr experiment nodebug
attr inifile omnetpp.ini
attr iterationvars ""
attr iterationvars2 $repetition=37
attr measurement ""
attr network "\"org.car2x.veins.modules.application.ExtTraCIScenarioManagerLaunchd.IntersectionExampleScenario\""
attr processid 5072
attr repetition 37
attr replication #37
attr resultdir results
attr runnumber 37
attr seedset 37
param **.coreDebug false
param **.debug false
param *.**.nic.mac1609_4.bitrate 18Mbps
param *.**.nic.mac1609_4.txPower 20mW
param *.**.nic.mac1609_4.useServiceChannel false
param *.**.nic.phy80211p.analogueModels "xmldoc(\"config.xml\")"
param *.**.nic.phy80211p.decider "xmldoc(\"config.xml\")"
param *.**.nic.phy80211p.sensitivity -89dBm
param *.**.nic.phy80211p.thermalNoise -110dBm
param *.**.nic.phy80211p.usePropagationDelay true
param *.**.nic.phy80211p.useThermalNoise true
param *.annotations.draw false
param *.connectionManager.alpha 2.0
param *.connectionManager.carrierFrequency "5.890e9 Hz"
param *.connectionManager.pMax 20mW
param *.connectionManager.sat -89dBm
param *.connectionManager.sendDirect true
param *.manager.autoShutdown true
param *.manager.host "\"localhost\""
param *.manager.launchConfig "xmldoc(\"paramics.launchd.xml\")"
param *.manager.margin 25
param *.manager.moduleDisplayString "\"\""
param *.manager.moduleName "\"node\""
param *.manager.moduleType "\"org.car2x.veins.nodes.Car\""
param *.manager.port 9999
param *.manager.updateInterval 250ms
param *.node[*0].veinsmobility.accidentCount 0
param *.node[*0].veinsmobility.accidentDuration 30s
param *.node[*0].veinsmobility.accidentStart 75s
param *.node[*].appl.LiderSelectZoneRadio 55.0
param *.node[*].appl.ShareDataZoneRadio 110.0
param *.node[*].appl.TiempoSemaforo 30.0
param *.node[*].appl.beaconInterval 1s
param *.node[*].appl.beaconPriority 3
param *.node[*].appl.dataOnSch false
param *.node[*].appl.dataPriority 2
param *.node[*].appl.debug false
param *.node[*].appl.headerLength "256 bit"
param *.node[*].appl.maxOffset 0.005s
param *.node[*].appl.sendBeacons false
param *.node[*].appl.sendData true
param *.node[*].applType "\"Dummy\""
param *.node[*].mobilityType "\"TraCIMobility\""
param *.node[*].mobilityType.debug true
param *.node[*].veinsmobility.x 0
param *.node[*].veinsmobility.y 0
param *.node[*].veinsmobility.z 1.895
param *.node[*].veinsmobilityType "\"org.car2x.veins.modules.mobility.traci.TraCIMobility\""
param *.node[*].veinsmobilityType.debug true
param *.playgroundSizeX 8500m
param *.playgroundSizeY 8500m
param *.playgroundSizeZ 50m
param *.world.use2D false
param *.world.useTorus false

vector 55346  IntersectionExampleScenario.manager  vehiclesinsim  ETV
attr type  int
vector 55347  IntersectionExampleScenario.manager  realtime  ETV
attr type  int
attr unit  s
vector 55350  IntersectionExampleScenario.node[0].veinsmobility  posx  ETV
vector 55351  IntersectionExampleScenario.node[0].veinsmobility  posy  ETV
vector 55352  IntersectionExampleScenario.node[0].veinsmobility  speed  ETV
vector 55353  IntersectionExampleScenario.node[0].veinsmobility  acceleration  ETV
vector 55354  IntersectionExampleScenario.node[0].veinsmobility  co2emission  ETV
vector 55357  IntersectionExampleScenario.node[1].veinsmobility  posx  ETV
vector 55358  IntersectionExampleScenario.node[1].veinsmobility  posy  ETV
vector 55359  IntersectionExampleScenario.node[1].veinsmobility  speed  ETV
vector 55364  IntersectionExampleScenario.node[2].veinsmobility  posx  ETV
vector 55365  IntersectionExampleScenario.node[2].veinsmobility  posy  ETV
vector 55360  IntersectionExampleScenario.node[1].veinsmobility  acceleration  ETV
vector 55361  IntersectionExampleScenario.node[1].veinsmobility  co2emission  ETV
vector 55366  IntersectionExampleScenario.node[2].veinsmobility  speed  ETV
vector 55367  IntersectionExampleScenario.node[2].veinsmobility  acceleration  ETV
vector 55368  IntersectionExampleScenario.node[2].veinsmobility  co2emission  ETV
vector 55371  IntersectionExampleScenario.node[3].veinsmobility  posx  ETV
vector 55372  IntersectionExampleScenario.node[3].veinsmobility  posy  ETV
vector 55373  IntersectionExampleScenario.node[3].veinsmobility  speed  ETV
vector 55374  IntersectionExampleScenario.node[3].veinsmobility  acceleration  ETV
vector 55375  IntersectionExampleScenario.node[3].veinsmobility  co2emission  ETV
vector 55378  IntersectionExampleScenario.node[4].veinsmobility  posx  ETV
vector 55379  IntersectionExampleScenario.node[4].veinsmobility  posy  ETV
vector 55380  IntersectionExampleScenario.node[4].veinsmobility  speed  ETV
vector 55381  IntersectionExampleScenario.node[4].veinsmobility  acceleration  ETV
vector 55382  IntersectionExampleScenario.node[4].veinsmobility  co2emission  ETV
vector 55385  IntersectionExampleScenario.node[5].veinsmobility  posx  ETV
vector 55386  IntersectionExampleScenario.node[5].veinsmobility  posy  ETV
vector 55387  IntersectionExampleScenario.node[5].veinsmobility  speed  ETV
vector 55388  IntersectionExampleScenario.node[5].veinsmobility  acceleration  ETV
vector 55389  IntersectionExampleScenario.node[5].veinsmobility  co2emission  ETV
vector 55392  IntersectionExampleScenario.node[6].veinsmobility  posx  ETV
vector 55393  IntersectionExampleScenario.node[6].veinsmobility  posy  ETV
vector 55394  IntersectionExampleScenario.node[6].veinsmobility  speed  ETV
vector 55399  IntersectionExampleScenario.node[7].veinsmobility  posx  ETV
vector 55400  IntersectionExampleScenario.node[7].veinsmobility  posy  ETV
vector 55395  IntersectionExampleScenario.node[6].veinsmobility  acceleration  ETV
vector 55396  IntersectionExampleScenario.node[6].veinsmobility  co2emission  ETV
vector 55401  IntersectionExampleScenario.node[7].veinsmobility  speed  ETV
vector 55402  IntersectionExampleScenario.node[7].veinsmobility  acceleration  ETV
vector 55403  IntersectionExampleScenario.node[7].veinsmobility  co2emission  ETV
vector 55406  IntersectionExampleScenario.node[8].veinsmobility  posx  ETV
vector 55407  IntersectionExampleScenario.node[8].veinsmobility  posy  ETV
vector 55408  IntersectionExampleScenario.node[8].veinsmobility  speed  ETV
vector 55409  IntersectionExampleScenario.node[8].veinsmobility  acceleration  ETV
vector 55410  IntersectionExampleScenario.node[8].veinsmobility  co2emission  ETV
vector 55413  IntersectionExampleScenario.node[9].veinsmobility  posx  ETV
vector 55414  IntersectionExampleScenario.node[9].veinsmobility  posy  ETV
vector 55415  IntersectionExampleScenario.node[9].veinsmobility  speed  ETV
vector 55416  IntersectionExampleScenario.node[9].veinsmobility  acceleration  ETV
vector 55417  IntersectionExampleScenario.node[9].veinsmobility  co2emission  ETV
vector 55420  IntersectionExampleScenario.node[10].veinsmobility  posx  ETV
vector 55421  IntersectionExampleScenario.node[10].veinsmobility  posy  ETV
vector 55427  IntersectionExampleScenario.node[11].veinsmobility  posx  ETV
vector 55428  IntersectionExampleScenario.node[11].veinsmobility  posy  ETV
vector 55422  IntersectionExampleScenario.node[10].veinsmobility  speed  ETV
vector 55429  IntersectionExampleScenario.node[11].veinsmobility  speed  ETV
vector 55423  IntersectionExampleScenario.node[10].veinsmobility  acceleration  ETV
vector 55424  IntersectionExampleScenario.node[10].veinsmobility  co2emission  ETV
vector 55430  IntersectionExampleScenario.node[11].veinsmobility  acceleration  ETV
vector 55431  IntersectionExampleScenario.node[11].veinsmobility  co2emission  ETV
vector 55434  IntersectionExampleScenario.node[12].veinsmobility  posx  ETV
vector 55435  IntersectionExampleScenario.node[12].veinsmobility  posy  ETV
vector 55436  IntersectionExampleScenario.node[12].veinsmobility  speed  ETV
vector 55437  IntersectionExampleScenario.node[12].veinsmobility  acceleration  ETV
vector 55438  IntersectionExampleScenario.node[12].veinsmobility  co2emission  ETV
55354	8097 5169 18 2546 3.25 43.75 163 0.973 10.756497587458 445.38410363519 1967.7089573836
55353	13266 4460 18 2546 3.25 43.75 163 -3.1745567321777 2.5 34.097539901733 153.05891213977
55352	17726 5074 15 2546 3 43.75 164 5.6500000953674 14.39999961853 2215.5660915375 30362.23658275
55351	22800 5316 12 2546 2.75 43.75 165 486.85000610352 486.85000610352 80330.25100708 39108783.193094
55350	28116 5306 12 2546 2.75 43.75 165 236.66076660156 785.82187652588 85778.154449463 48960694.677252
vector 55441  IntersectionExampleScenario.node[13].veinsmobility  posx  ETV
vector 55442  IntersectionExampleScenario.node[13].veinsmobility  posy  ETV
vector 55443  IntersectionExampleScenario.node[13].veinsmobility  speed  ETV
vector 55444  IntersectionExampleScenario.node[13].veinsmobility  acceleration  ETV
vector 55445  IntersectionExampleScenario.node[13].veinsmobility  co2emission  ETV
55375	33823 4996 149 2819 8.5 48 159 0.97223939240464 11.810082123732 507.90446564047 2852.4636117653
55374	38819 4676 149 2819 8.5 48 159 -3.3224391937256 2.5 38.680875778198 281.07744002893
55373	43495 4874 140 2819 8.25 48 160 5.6500000953674 15.875 2180.3963637352 31117.976678118
55372	48369 5236 131 2819 8 48 161 237.83447265625 483.14999389648 69706.979278564 31091660.187102
55371	53605 5216 131 2819 8 48 161 184.17810058594 483.26412963867 64007.387817383 27185758.505355
55368	58821 5578 54 2999 5.25 50.75 183 0.973 11.54047740176 579.7164638267 2988.7262904513
55367	64399 5411 54 2999 5.25 50.75 183 -4.5 2.5 41.396924972534 481.10074888554
55366	69810 5547 47 2999 5 50.75 184 0 16.06360244751 2315.7246912122 33757.376306782
55365	75357 5983 40 2999 4.75 50.75 185 235.51623535156 809.56562805176 98153.006835938 56686854.209567
55364	81340 6000 40 2999 4.75 50.75 185 483.14999389648 483.14999389648 89382.74887085 43185274.571402
55361	87340 5640 40 2999 4.75 50.75 185 0.973 11.36141391502 540.4274068989 2747.0186392127
55360	92980 5294 40 2999 4.75 50.75 185 -7.0903778076172 4 36.474081039429 459.16872759568
55359	98274 5516 35 2999 4.5 50.75 186 0 15.25 2183.4327642918 29929.198266531
55358	103790 6056 30 2999 4.25 50.75 187 486.63604736328 785.82187652588 105422.74871063 61306015.734184
55357	109846 5993 30 2999 4.25 50.75 187 235.26263427734 483.14999389648 81817.778167725 36815676.555645
55382	115839 4978 315 3149 13 53.25 162 0.973 12.099024792222 564.68661267759 3534.9485971061
55381	120817 4686 315 3149 13 53.25 162 -3.4588470458984 2.5 41.227170944214 354.73166719472
55380	125503 5035 304 3149 12.75 53.25 163 5.6500000953674 16.27499961853 2209.2578601837 31500.482802419
55379	130538 5358 293 3149 12.5 53.25 164 483.14999389648 785.82187652588 93616.108268738 55183210.238139
55378	135896 5346 293 3149 12.5 53.25 164 483.14999389648 733.52308654785 87313.024383545 47432395.710404
vector 55448  IntersectionExampleScenario.node[14].veinsmobility  posx  ETV
vector 55449  IntersectionExampleScenario.node[14].veinsmobility  posy  ETV
vector 55450  IntersectionExampleScenario.node[14].veinsmobility  speed  ETV
vector 55451  IntersectionExampleScenario.node[14].veinsmobility  acceleration  ETV
vector 55452  IntersectionExampleScenario.node[14].veinsmobility  co2emission  ETV
55403	141643 5048 568 3413 17.75 57.25 159 0.973 11.250674900038 471.47428530656 2497.037939416
55402	146691 4825 568 3413 17.75 57.25 159 -3.0739402770996 2.5 35.964826583862 200.07870068564
55401	151516 5035 551 3413 17.5 57.25 160 5.6500000953674 15.095020294189 2213.9289751053 31152.965691775
55400	156551 5277 534 3413 17.25 57.25 161 237.00860595703 785.82187652588 83852.884468079 47929434.046779
55399	161828 5288 534 3413 17.25 57.25 161 483.14999389648 483.14999389648 77787.149017334 37582860.57295
vector 55455  IntersectionExampleScenario.node[15].veinsmobility  posx  ETV
vector 55456  IntersectionExampleScenario.node[15].veinsmobility  posy  ETV
vector 55457  IntersectionExampleScenario.node[15].veinsmobility  speed  ETV
vector 55458  IntersectionExampleScenario.node[15].veinsmobility  acceleration  ETV
vector 55459  IntersectionExampleScenario.node[15].veinsmobility  co2emission  ETV
vector 55462  IntersectionExampleScenario.node[16].veinsmobility  posx  ETV
vector 55463  IntersectionExampleScenario.node[16].veinsmobility  posy  ETV
vector 55464  IntersectionExampleScenario.node[16].veinsmobility  speed  ETV
vector 55465  IntersectionExampleScenario.node[16].veinsmobility  acceleration  ETV
vector 55466  IntersectionExampleScenario.node[16].veinsmobility  co2emission  ETV
vector 55469  IntersectionExampleScenario.node[17].veinsmobility  posx  ETV
vector 55470  IntersectionExampleScenario.node[17].veinsmobility  posy  ETV
vector 55471  IntersectionExampleScenario.node[17].veinsmobility  speed  ETV
vector 55476  IntersectionExampleScenario.node[18].veinsmobility  posx  ETV
vector 55477  IntersectionExampleScenario.node[18].veinsmobility  posy  ETV
vector 55472  IntersectionExampleScenario.node[17].veinsmobility  acceleration  ETV
vector 55473  IntersectionExampleScenario.node[17].veinsmobility  co2emission  ETV
vector 55478  IntersectionExampleScenario.node[18].veinsmobility  speed  ETV
vector 55479  IntersectionExampleScenario.node[18].veinsmobility  acceleration  ETV
vector 55480  IntersectionExampleScenario.node[18].veinsmobility  co2emission  ETV
55431	168720 5117 1229 4130 26.5 66.25 160 0.973 11.450879080643 491.22201916345 2578.0442627963
55430	173837 4636 1229 4130 26.5 66.25 160 -3.0562591552734 2.5 37.15309715271 232.86023995563
55429	178473 5033 1204 4130 26.25 66.25 161 5.6500000953674 15.375 2204.2688922882 31025.829087839
55428	183506 5323 1179 4130 26 66.25 162 184.17810058594 486.85000610352 64523.920410156 27494111.782254
55427	188829 5341 1179 4130 26 66.25 162 237.72027587891 486.85000610352 70365.528900146 31529586.04259
vector 55483  IntersectionExampleScenario.node[19].veinsmobility  posx  ETV
vector 55484  IntersectionExampleScenario.node[19].veinsmobility  posy  ETV
vector 55485  IntersectionExampleScenario.node[19].veinsmobility  speed  ETV
vector 55486  IntersectionExampleScenario.node[19].veinsmobility  acceleration  ETV
vector 55487  IntersectionExampleScenario.node[19].veinsmobility  co2emission  ETV
vector 55490  IntersectionExampleScenario.node[20].veinsmobility  posx  ETV
vector 55491  IntersectionExampleScenario.node[20].veinsmobility  posy  ETV
vector 55492  IntersectionExampleScenario.node[20].veinsmobility  speed  ETV
vector 55493  IntersectionExampleScenario.node[20].veinsmobility  acceleration  ETV
vector 55494  IntersectionExampleScenario.node[20].veinsmobility  co2emission  ETV
vector 55497  IntersectionExampleScenario.node[21].veinsmobility  posx  ETV
vector 55498  IntersectionExampleScenario.node[21].veinsmobility  posy  ETV
vector 55499  IntersectionExampleScenario.node[21].veinsmobility  speed  ETV
vector 55500  IntersectionExampleScenario.node[21].veinsmobility  acceleration  ETV
vector 55501  IntersectionExampleScenario.node[21].veinsmobility  co2emission  ETV
vector 55504  IntersectionExampleScenario.node[22].veinsmobility  posx  ETV
vector 55505  IntersectionExampleScenario.node[22].veinsmobility  posy  ETV
vector 55506  IntersectionExampleScenario.node[22].veinsmobility  speed  ETV
vector 55507  IntersectionExampleScenario.node[22].veinsmobility  acceleration  ETV
vector 55508  IntersectionExampleScenario.node[22].veinsmobility  co2emission  ETV
vector 55511  IntersectionExampleScenario.node[23].veinsmobility  posx  ETV
vector 55512  IntersectionExampleScenario.node[23].veinsmobility  posy  ETV
vector 55513  IntersectionExampleScenario.node[23].veinsmobility  speed  ETV
55410	196006 6763 810 5041 21.25 79 232 0.973 11.810082123732 612.5459259185 3092.9743790552
55409	202769 6055 810 5041 21.25 79 232 -6.9388580322266 4 39.869146347046 481.49561185204
55408	208824 6409 791 5041 21 79 233 0 15.875 2183.3810286522 31318.381264493
55407	215233 7639 772 5041 20.75 79 234 486.85000610352 734.37205505371 121997.66171265 64653172.74094
55406	222872 7700 772 5041 20.75 79 234 486.63604736328 785.82187652588 128457.66570282 72521795.09818
vector 55514  IntersectionExampleScenario.node[23].veinsmobility  acceleration  ETV
vector 55515  IntersectionExampleScenario.node[23].veinsmobility  co2emission  ETV
55389	230741 7554 374 5133 14.25 80 264 0.973 11.200708441096 613.50009350003 2754.5287397026
55388	238295 7021 374 5133 14.25 80 264 -8.9040794372559 4 35.625318527222 482.1972471831
55387	245316 7161 361 5133 14 80 265 0 15.02499961853 2215.553478241 30289.484576738
55386	252477 8737 348 5133 13.75 80 266 483.14999389648 483.14999389648 128517.89837646 62093421.816178
55385	261214 8706 348 5133 13.75 80 266 184.17810058594 734.74969482422 121983.37371826 60278951.803967
55396	269920 7736 534 5202 17.25 80.75 255 0.973 11.810082123732 632.09648064929 2998.8030108597
55395	277656 7736 534 5202 17.25 80.75 255 -4.5 2.5 38.511121749878 441.39065839639
55394	285392 7644 519 5202 17 80.75 256 0 15.875 2239.9989127265 31100.66788703
55393	293036 8447 504 5202 16.75 80.75 257 235.74572753906 483.14999389648 115943.24008179 53397070.920378
55392	301483 8426 504 5202 16.75 80.75 257 171.40313720703 483.14999389648 107465.34085083 47180287.855803
vector 55518  IntersectionExampleScenario.node[24].veinsmobility  posx  ETV
vector 55519  IntersectionExampleScenario.node[24].veinsmobility  posy  ETV
vector 55525  IntersectionExampleScenario.node[25].veinsmobility  posx  ETV
vector 55526  IntersectionExampleScenario.node[25].veinsmobility  posy  ETV
vector 55520  IntersectionExampleScenario.node[24].veinsmobility  speed  ETV
vector 55521  IntersectionExampleScenario.node[24].veinsmobility  acceleration  ETV
vector 55522  IntersectionExampleScenario.node[24].veinsmobility  co2emission  ETV
vector 55527  IntersectionExampleScenario.node[25].veinsmobility  speed  ETV
vector 55528  IntersectionExampleScenario.node[25].veinsmobility  acceleration  ETV
vector 55529  IntersectionExampleScenario.node[25].veinsmobility  co2emission  ETV
55438	310711 5404 2229 5372 38.75 82.5 176 0.973 11.648172402475 553.32406900806 3053.8478093478
55437	316115 5557 2229 5372 38.75 82.5 176 -4.4934463500977 2.5 38.511121749878 333.20756448351
55436	321672 5817 2212 5372 38.5 82.5 177 5.0954422950745 15.64999961853 2214.8333816528 29854.292341505
55435	327489 5869 2195 5372 38.25 82.5 178 235.37384033203 486.85000610352 78144.370849609 35320887.48738
55434	333358 5863 2195 5372 38.25 82.5 178 483.09448242188 785.82187652588 100980.80942535 59103415.451578
55417	339221 6984 1137 5472 25.5 83.5 233 0.973 11.093806525473 562.26331514138 2541.5600335955
55416	346205 7263 1137 5472 25.5 83.5 233 -3.9910879135132 2.5 34.437047958374 310.44576834484
55415	353468 7491 1116 5472 25.25 83.5 234 0 14.875 2210.9273695108 27971.392017362
55414	360959 7754 1095 5472 25 83.5 235 483.14999389648 483.14999389648 113540.24856567 54856970.40151
55413	368713 7712 1095 5472 25 83.5 235 184.17810058594 732.19378662109 105670.00636292 51852365.908552
55424	376425 7872 1229 6595 26.5 95.5 277 0.973 11.36141391502 634.05557036113 2848.2493831618
55423	384297 6990 1229 6595 26.5 95.5 277 -7.3394756317139 4 36.813589096069 513.23219140862
55422	391287 7334 1204 6595 26.25 95.5 278 0 15.25 2173.4125666618 30083.015372705
55421	398621 9200 1179 6595 26 95.5 279 486.63604736328 785.82187652588 151220.81638336 84097142.724923
55420	407821 9142 1179 6595 26 95.5 279 237.89813232422 483.14999389648 126488.48757935 58453535.724697
55445	416963 6150 2700 6779 46.25 97.5 206 0.973 12.099024792222 583.00583219951 3079.2894072666
55444	423113 6491 2700 6779 46.25 97.5 206 -3.9311535358429 2.5000004768372 41.057416915894 344.25876045848
55443	429604 6524 2683 6779 46 97.5 207 0 16.27499961853 2191.8070779592 29759.37995059
55442	436128 6843 2666 6779 45.75 97.5 208 486.68154907227 785.82187652588 116336.9814682 66908005.146594
55441	442971 6852 2666 6779 45.75 97.5 208 235.57281494141 483.14999389648 92533.432495117 42166311.80833
vector 55532  IntersectionExampleScenario.node[26].veinsmobility  posx  ETV
vector 55533  IntersectionExampleScenario.node[26].veinsmobility  posy  ETV
vector 55534  IntersectionExampleScenario.node[26].veinsmobility  speed  ETV
vector 55535  IntersectionExampleScenario.node[26].veinsmobility  acceleration  ETV
vector 55536  IntersectionExampleScenario.node[26].veinsmobility  co2emission  ETV
vector 55539  IntersectionExampleScenario.node[27].veinsmobility  posx  ETV
vector 55540  IntersectionExampleScenario.node[27].veinsmobility  posy  ETV
vector 55541  IntersectionExampleScenario.node[27].veinsmobility  speed  ETV
vector 55542  IntersectionExampleScenario.node[27].veinsmobility  acceleration  ETV
vector 55543  IntersectionExampleScenario.node[27].veinsmobility  co2emission  ETV
55473	450625 4994 3825 7263 62.5 102.25 160 0.973 11.810082123732 536.26934048303 3307.1327123544
55472	455619 4851 3825 7263 62.5 102.25 160 -3.3131675720215 2.5 38.511121749878 320.6123169211
55471	460470 4975 3802 7263 62.25 102.25 161 5.6500000953674 15.875 2179.7893838882 30892.686755761
55470	465445 5344 3779 7263 62 102.25 162 486.68069458008 785.82187652588 92748.720863342 54841662.504128
55469	470789 5341 3779 7263 62 102.25 162 238.34527587891 483.14999389648 70202.783111572 31332639.211964
vector 55546  IntersectionExampleScenario.node[28].veinsmobility  posx  ETV
vector 55547  IntersectionExampleScenario.node[28].veinsmobility  posy  ETV
vector 55548  IntersectionExampleScenario.node[28].veinsmobility  speed  ETV
vector 55549  IntersectionExampleScenario.node[28].veinsmobility  acceleration  ETV
vector 55550  IntersectionExampleScenario.node[28].veinsmobility  co2emission  ETV
vector 55553  IntersectionExampleScenario.node[29].veinsmobility  posx  ETV
vector 55554  IntersectionExampleScenario.node[29].veinsmobility  posy  ETV
vector 55555  IntersectionExampleScenario.node[29].veinsmobility  speed  ETV
vector 55556  IntersectionExampleScenario.node[29].veinsmobility  acceleration  ETV
vector 55557  IntersectionExampleScenario.node[29].veinsmobility  co2emission  ETV
vector 55560  IntersectionExampleScenario.node[30].veinsmobility  posx  ETV
vector 55561  IntersectionExampleScenario.node[30].veinsmobility  posy  ETV
vector 55567  IntersectionExampleScenario.node[31].veinsmobility  posx  ETV
vector 55568  IntersectionExampleScenario.node[31].veinsmobility  posy  ETV
vector 55562  IntersectionExampleScenario.node[30].veinsmobility  speed  ETV
vector 55563  IntersectionExampleScenario.node[30].veinsmobility  acceleration  ETV
vector 55564  IntersectionExampleScenario.node[30].veinsmobility  co2emission  ETV
vector 55569  IntersectionExampleScenario.node[31].veinsmobility  speed  ETV
vector 55570  IntersectionExampleScenario.node[31].veinsmobility  acceleration  ETV
vector 55571  IntersectionExampleScenario.node[31].veinsmobility  co2emission  ETV
vector 55574  IntersectionExampleScenario.node[32].veinsmobility  posx  ETV
vector 55575  IntersectionExampleScenario.node[32].veinsmobility  posy  ETV
vector 55576  IntersectionExampleScenario.node[32].veinsmobility  speed  ETV
vector 55577  IntersectionExampleScenario.node[32].veinsmobility  acceleration  ETV
vector 55578  IntersectionExampleScenario.node[32].veinsmobility  co2emission  ETV
55508	478135 5111 4996 8824 78.5 117.5 157 0.973 11.648172402475 491.52726649725 2636.9338880946
55507	483246 4640 4996 8824 78.5 117.5 157 -3.3749504089355 2.5 38.511121749878 234.68495490327
55506	487886 4998 4973 8824 78.25 117.5 158 5.6500000953674 15.64999961853 2208.4046278 31807.746712363
55505	492884 5297 4950 8824 78 117.5 159 184.17810058594 486.85000610352 63312.023651123 26984298.110733
55504	498181 5312 4950 8824 78 117.5 159 236.83752441406 486.85000610352 69019.078063965 30914108.780926
vector 55581  IntersectionExampleScenario.node[33].veinsmobility  posx  ETV
vector 55582  IntersectionExampleScenario.node[33].veinsmobility  posy  ETV
vector 55583  IntersectionExampleScenario.node[33].veinsmobility  speed  ETV
vector 55584  IntersectionExampleScenario.node[33].veinsmobility  acceleration  ETV
vector 55585  IntersectionExampleScenario.node[33].veinsmobility  co2emission  ETV
55529	503894 5207 5322 9155 82 121.75 160 0.973 11.810082123732 517.80196474437 2893.5311582108
55528	509101 4975 5322 9155 82 121.75 160 -4.3847160339355 2.5 39.359884262085 295.65427591416
55527	514076 5072 5297 9155 81.75 121.75 161 5.6500000953674 15.875 2221.8023271561 32094.175437585
55526	519148 5410 5272 9155 81.5 121.75 162 174.53436279297 483.20407104492 63752.078491211 26962171.539723
55525	524558 5422 5272 9155 81.5 121.75 162 486.85000610352 733.0975189209 86923.758056641 47557457.039378
vector 55588  IntersectionExampleScenario.node[34].veinsmobility  posx  ETV
vector 55589  IntersectionExampleScenario.node[34].veinsmobility  posy  ETV
vector 55590  IntersectionExampleScenario.node[34].veinsmobility  speed  ETV
vector 55591  IntersectionExampleScenario.node[34].veinsmobility  acceleration  ETV
vector 55592  IntersectionExampleScenario.node[34].veinsmobility  co2emission  ETV
vector 55595  IntersectionExampleScenario.node[35].veinsmobility  posx  ETV
vector 55596  IntersectionExampleScenario.node[35].veinsmobility  posy  ETV
vector 55597  IntersectionExampleScenario.node[35].veinsmobility  speed  ETV
vector 55598  IntersectionExampleScenario.node[35].veinsmobility  acceleration  ETV
vector 55599  IntersectionExampleScenario.node[35].veinsmobility  co2emission  ETV
55452	530782 8132 3243 9433 54.75 125 282 0.973 11.200708441096 635.85202948679 2770.5029148125
55451	538914 7395 3243 9433 54.75 125 282 -38.451454162598 4 35.795072555542 1793.1597475498
55450	546309 7532 3226 9433 54.5 125 283 0 15.02499961853 2205.2683753967 30558.992241765
55449	553841 9464 3209 9433 54.25 125 284 235.04376220703 486.85000610352 129387.95178223 60161487.385072
55448	563305 9459 3209 9433 54.25 125 284 483.14999389648 785.82187652588 153530.08708954 85183798.707386
55459	572764 7869 3485 9577 58.25 126.75 275 0.96333723109819 12.099024792222 659.37246299838 3110.2720803108
55458	580633 7260 3485 9577 58.25 126.75 275 -9.7617635726929 4 40.208654403687 550.07121948903
55457	587893 7372 3466 9577 58 126.75 276 0 16.27499961853 2177.5786962509 31352.265097685
55456	595265 9245 3447 9577 57.75 126.75 277 237.95452880859 483.14999389648 125914.15249634 58295752.061181
55455	604510 9219 3447 9577 57.75 126.75 277 184.17810058594 483.24322509766 118892.4362793 53117777.090267
vector 55602  IntersectionExampleScenario.node[36].veinsmobility  posx  ETV
vector 55603  IntersectionExampleScenario.node[36].veinsmobility  posy  ETV
vector 55604  IntersectionExampleScenario.node[36].veinsmobility  speed  ETV
vector 55605  IntersectionExampleScenario.node[36].veinsmobility  acceleration  ETV
vector 55606  IntersectionExampleScenario.node[36].veinsmobility  co2emission  ETV
55480	614130 7985 3872 9699 63 128.25 262 0.973 11.54047740176 617.28352168557 2845.0255439115
55479	622115 7942 3872 9699 63 128.25 262 -4.5 2.5 37.32285118103 426.9950896067
55478	630057 7987 3849 9699 62.75 128.25 263 0 15.5 2115.2527027531 29092.244562791
55477	638044 8826 3825 9699 62.5 128.25 264 483.14999389648 483.14999389648 127551.59838867 61626553.982973
55476	646870 8807 3825 9699 62.5 128.25 264 208.26013183594 732.91331481934 122008.42993164 60059047.978415
55501	655677 6699 4719 9799 75.25 129.5 218 0.973 10.756497587458 553.00943413156 2366.9855884814
55500	662376 6979 4719 9799 75.25 129.5 218 -3.862277507782 2.5000009536743 34.94630241394 304.83136690408
55499	669355 7297 4698 9799 75 129.5 219 0 14.408608436584 2210.7011268139 27672.261856323
55498	676652 7371 4677 9799 74.75 129.5 220 234.98217773438 486.85000610352 98050.366607666 44841286.680691
55497	684023 7359 4677 9799 74.75 129.5 220 483.12713623047 785.82187652588 122627.07662964 70335322.803539
vector 55609  IntersectionExampleScenario.node[37].veinsmobility  posx  ETV
vector 55610  IntersectionExampleScenario.node[37].veinsmobility  posy  ETV
vector 55611  IntersectionExampleScenario.node[37].veinsmobility  speed  ETV
55522	691614 6072 5297 9839 81.75 130 194 0.973 10.916047529558 539.38656943709 2609.5514801463
55521	697686 5789 5297 9839 81.75 130 194 -4.5 2.5 35.795072555542 325.92473995814
55520	703475 6244 5272 9839 81.5 130 195 4.4078011512756 14.625 2182.1321158409 27148.543036707
55519	709719 6572 5248 9839 81.25 130 196 486.85000610352 732.93562316895 103938.06968689 56141298.341166
55518	716291 6580 5248 9839 81.25 130 196 486.85000610352 785.82187652588 111279.87708282 65007433.043432
vector 55612  IntersectionExampleScenario.node[37].veinsmobility  acceleration  ETV
vector 55613  IntersectionExampleScenario.node[37].veinsmobility  co2emission  ETV
55466	723040 8725 3737 9920 61.5 131 279 0.973 10.916047529558 664.81633800954 2835.2820395565
55465	731765 9046 3737 9920 61.5 131 279 -4.5 2.5 38.680875778198 434.62967023804
55464	740811 9068 3716 9920 61.25 131 280 0 15.373682975769 2230.0901640579 29002.903525414
55463	749879 9392 3695 9920 61 131 281 236.09478759766 483.14999389648 127553.96310425 59006358.170779
55462	759271 9361 3695 9920 61 131 281 172.9296875 483.18319702148 116457.68325806 50634854.03478
vector 55616  IntersectionExampleScenario.node[38].veinsmobility  posx  ETV
vector 55617  IntersectionExampleScenario.node[38].veinsmobility  posy  ETV
vector 55618  IntersectionExampleScenario.node[38].veinsmobility  speed  ETV
vector 55619  IntersectionExampleScenario.node[38].veinsmobility  acceleration  ETV
vector 55620  IntersectionExampleScenario.node[38].veinsmobility  co2emission  ETV
55487	769033 7536 4514 10128 72.5 133.75 246 0.973 11.200708441096 592.50345020571 2677.0144551803
55486	776569 7754 4514 10128 72.5 133.75 246 -3.8072538375854 2.5 37.32285118103 305.161565516
55485	784323 7975 4497 10128 72.25 133.75 247 0 15.02499961853 2187.9136569928 27682.881557035
55484	792298 8322 4480 10128 72 133.75 248 235.95111083984 483.14999389648 111434.52810669 51164847.601169
55483	800620 8289 4480 10128 72 133.75 248 184.17810058594 483.14999389648 102424.39871216 44200110.403948
vector 55623  IntersectionExampleScenario.node[39].veinsmobility  posx  ETV
vector 55624  IntersectionExampleScenario.node[39].veinsmobility  posy  ETV
55515	809063 6866 5064 10185 79.25 134.5 222 0.973 11.200708441096 604.18814378881 2951.7575758726
55514	815929 7237 5064 10185 79.25 134.5 222 -4.5 2.5 41.227174758911 374.19611347461
55513	823166 7199 5041 10185 79 134.5 223 0 16.02074432373 2206.635963656 29689.295624777
55512	830365 7534 5018 10185 78.75 134.5 224 483.14999389648 732.16508483887 116255.48402405 61374438.642418
55511	837899 7505 5018 10185 78.75 134.5 224 184.17810058594 486.85000610352 91830.182891846 39492494.419329
vector 55625  IntersectionExampleScenario.node[39].veinsmobility  speed  ETV
vector 55626  IntersectionExampleScenario.node[39].veinsmobility  acceleration  ETV
vector 55627  IntersectionExampleScenario.node[39].veinsmobility  co2emission  ETV
vector 55630  IntersectionExampleScenario.node[40].veinsmobility  posx  ETV
vector 55631  IntersectionExampleScenario.node[40].veinsmobility  posy  ETV
vector 55637  IntersectionExampleScenario.node[41].veinsmobility  posx  ETV
vector 55638  IntersectionExampleScenario.node[41].veinsmobility  posy  ETV
vector 55632  IntersectionExampleScenario.node[40].veinsmobility  speed  ETV
vector 55633  IntersectionExampleScenario.node[40].veinsmobility  acceleration  ETV
vector 55634  IntersectionExampleScenario.node[40].veinsmobility  co2emission  ETV
vector 55639  IntersectionExampleScenario.node[41].veinsmobility  speed  ETV
vector 55644  IntersectionExampleScenario.node[42].veinsmobility  posx  ETV
vector 55645  IntersectionExampleScenario.node[42].veinsmobility  posy  ETV
vector 55640  IntersectionExampleScenario.node[41].veinsmobility  acceleration  ETV
vector 55641  IntersectionExampleScenario.node[41].veinsmobility  co2emission  ETV
vector 55646  IntersectionExampleScenario.node[42].veinsmobility  speed  ETV
vector 55647  IntersectionExampleScenario.node[42].veinsmobility  acceleration  ETV
vector 55648  IntersectionExampleScenario.node[42].veinsmobility  co2emission  ETV
vector 55651  IntersectionExampleScenario.node[43].veinsmobility  posx  ETV
vector 55652  IntersectionExampleScenario.node[43].veinsmobility  posy  ETV
vector 55653  IntersectionExampleScenario.node[43].veinsmobility  speed  ETV
55494	847086 7734 4620 10726 74 140 265 0.973 11.648172402475 645.78922447585 3067.5408530156
55493	854820 6851 4620 10726 74 140 265 -7.2641291618347 4 39.699392318726 482.34065980539
55492	861671 7314 4601 10726 73.75 140 266 0 15.64999961853 2215.4933336973 31979.178314539
55491	868985 8992 4582 10726 73.5 140 267 235.89251708984 785.82187652588 136671.84354401 74091306.571537
55490	877977 9003 4582 10726 73.5 140 267 483.14999389648 483.14999389648 129001.04837036 62326855.73278
vector 55654  IntersectionExampleScenario.node[43].veinsmobility  acceleration  ETV
vector 55655  IntersectionExampleScenario.node[43].veinsmobility  co2emission  ETV
55536	887149 5773 6875 11064 98.5 143.25 180 0.973 11.200708441096 519.45656928018 2674.1739948197
55535	892922 5730 6875 11064 98.5 143.25 180 -2.2571754455566 2.5 35.285810470581 278.21390889331
55534	898652 5915 6850 11064 98.25 143.25 181 4.4996981620789 15.02499961853 2207.9513950348 28729.705812573
55533	904567 6211 6825 11064 98 143.25 182 483.14999389648 785.82187652588 103366.79793549 60554988.35045
55532	910778 6211 6825 11064 98 143.25 182 483.14999389648 733.11004638672 96758.073455811 52483703.698824
vector 55658  IntersectionExampleScenario.node[44].veinsmobility  posx  ETV
vector 55659  IntersectionExampleScenario.node[44].veinsmobility  posy  ETV
vector 55660  IntersectionExampleScenario.node[44].veinsmobility  speed  ETV
vector 55661  IntersectionExampleScenario.node[44].veinsmobility  acceleration  ETV
vector 55662  IntersectionExampleScenario.node[44].veinsmobility  co2emission  ETV
vector 55665  IntersectionExampleScenario.node[45].veinsmobility  posx  ETV
vector 55666  IntersectionExampleScenario.node[45].veinsmobility  posy  ETV
vector 55667  IntersectionExampleScenario.node[45].veinsmobility  speed  ETV
vector 55668  IntersectionExampleScenario.node[45].veinsmobility  acceleration  ETV
vector 55669  IntersectionExampleScenario.node[45].veinsmobility  co2emission  ETV
55550	917791 5593 7342 11363 103 146 173 0.973 11.990504229548 553.5432605546 3015.5497322483
55549	923384 5533 7342 11363 103 146 173 -4.5 2.5 39.869146347046 302.81166651984
55548	928917 5716 7315 11363 102.75 146 174 5.6500000953674 16.125 2309.7839140892 32159.675343553
55547	934633 5988 7288 11363 102.5 146 175 237.84008789062 809.66329193115 93885.021080017 54972726.599253
55546	940621 6005 7288 11363 102.5 146 175 483.14999389648 483.14999389648 84551.248931885 40850935.40538
55543	946626 5978 7054 11363 100.25 146 184 0.973 11.36141391502 583.16780921697 3223.8727329044
55542	952604 5884 7054 11363 100.25 146 184 -4.5 2.5 36.134572982788 463.56485635097
55541	958488 6026 7027 11363 100 146 185 4.5687279701233 15.25 2261.1611213684 29649.388623305
55540	964514 6363 7000 11363 99.75 146 186 486.85000610352 805.05782318115 107494.61806488 64214537.66461
55539	970877 6373 7000 11363 99.75 146 186 236.46911621094 483.14999389648 81374.474609375 36608132.181101
vector 55672  IntersectionExampleScenario.node[46].veinsmobility  posx  ETV
vector 55673  IntersectionExampleScenario.node[46].veinsmobility  posy  ETV
vector 55674  IntersectionExampleScenario.node[46].veinsmobility  speed  ETV
vector 55675  IntersectionExampleScenario.node[46].veinsmobility  acceleration  ETV
vector 55676  IntersectionExampleScenario.node[46].veinsmobility  co2emission  ETV
vector 55679  IntersectionExampleScenario.node[47].veinsmobility  posx  ETV
vector 55680  IntersectionExampleScenario.node[47].veinsmobility  posy  ETV
vector 55681  IntersectionExampleScenario.node[47].veinsmobility  speed  ETV
55571	977883 5456 7880 11760 107.75 149.25 167 0.97223939240464 11.648172402475 517.69706206303 2839.1096078465
55570	983339 5268 7880 11760 107.75 149.25 167 -3.9188003540039 2.5 38.680875778198 257.09038490433
55569	988607 5503 7849 11760 107.5 149.25 168 5.6500000953674 15.64999961853 2251.6880731583 31109.800415738
55568	994110 5811 7818 11760 107.25 149.25 169 482.95928955078 798.32964324951 97520.429779053 58240305.616868
55567	999921 5801 7818 11760 107.25 149.25 169 483.14999389648 732.20048522949 89959.456710815 48854981.906634
vector 55682  IntersectionExampleScenario.node[47].veinsmobility  acceleration  ETV
vector 55683  IntersectionExampleScenario.node[47].veinsmobility  co2emission  ETV
vector 55686  IntersectionExampleScenario.node[48].veinsmobility  posx  ETV
vector 55687  IntersectionExampleScenario.node[48].veinsmobility  posy  ETV
vector 55688  IntersectionExampleScenario.node[48].veinsmobility  speed  ETV
vector 55689  IntersectionExampleScenario.node[48].veinsmobility  acceleration  ETV
vector 55690  IntersectionExampleScenario.node[48].veinsmobility  co2emission  ETV
55564	1006292 6260 7849 12598 107.5 155.75 194 0.973 11.200708441096 546.04063130971 2662.7168242109
55563	1012552 5711 7849 12598 107.5 155.75 194 -7.5492124557495 4 35.964826583862 464.95119503635
55562	1018263 6129 7818 12598 107.25 155.75 195 0 15.02499961853 2195.2273612022 30022.836036447
55561	1024392 6728 7789 12598 107 155.75 196 184.17810058594 486.85000610352 80407.657806396 34937803.082476
55560	1031120 6751 7789 12598 107 155.75 196 238.12384033203 486.85000610352 86781.313415527 39475763.178792
vector 55693  IntersectionExampleScenario.node[49].veinsmobility  posx  ETV
vector 55694  IntersectionExampleScenario.node[49].veinsmobility  posy  ETV
vector 55700  IntersectionExampleScenario.node[50].veinsmobility  posx  ETV
vector 55701  IntersectionExampleScenario.node[50].veinsmobility  posy  ETV
vector 55695  IntersectionExampleScenario.node[49].veinsmobility  speed  ETV
vector 55696  IntersectionExampleScenario.node[49].veinsmobility  acceleration  ETV
vector 55697  IntersectionExampleScenario.node[49].veinsmobility  co2emission  ETV
vector 55702  IntersectionExampleScenario.node[50].veinsmobility  speed  ETV
vector 55703  IntersectionExampleScenario.node[50].veinsmobility  acceleration  ETV
vector 55704  IntersectionExampleScenario.node[50].veinsmobility  co2emission  ETV
vector 55707  IntersectionExampleScenario.node[51].veinsmobility  posx  ETV
vector 55708  IntersectionExampleScenario.node[51].veinsmobility  posy  ETV
vector 55709  IntersectionExampleScenario.node[51].veinsmobility  speed  ETV
vector 55710  IntersectionExampleScenario.node[51].veinsmobility  acceleration  ETV
vector 55711  IntersectionExampleScenario.node[51].veinsmobility  co2emission  ETV
55578	1039074 5561 8703 12892 116 158 169 0.973 11.200708441096 515.13630892159 2771.6140836237
55577	1044635 5384 8703 12892 116 158 169 -2.5377044677734 2.5 36.134572982788 262.53214135337
55576	1050019 5660 8682 12892 115.75 158 170 5.6500000953674 15.02499961853 2217.8899674416 29976.406272071
55575	1055679 5864 8661 12892 115.5 158 171 184.17810058594 733.38110351562 76628.05027771 38600213.854468
55574	1061543 5917 8661 12892 115.5 158 171 486.85000610352 486.85000610352 83251.351043701 40530920.763752
vector 55714  IntersectionExampleScenario.node[52].veinsmobility  posx  ETV
vector 55715  IntersectionExampleScenario.node[52].veinsmobility  posy  ETV
vector 55716  IntersectionExampleScenario.node[52].veinsmobility  speed  ETV
vector 55717  IntersectionExampleScenario.node[52].veinsmobility  acceleration  ETV
vector 55718  IntersectionExampleScenario.node[52].veinsmobility  co2emission  ETV
vector 55721  IntersectionExampleScenario.node[53].veinsmobility  posx  ETV
vector 55722  IntersectionExampleScenario.node[53].veinsmobility  posy  ETV
vector 55723  IntersectionExampleScenario.node[53].veinsmobility  speed  ETV
vector 55724  IntersectionExampleScenario.node[53].veinsmobility  acceleration  ETV
vector 55725  IntersectionExampleScenario.node[53].veinsmobility  co2emission  ETV
vector 55728  IntersectionExampleScenario.node[54].veinsmobility  posx  ETV
vector 55729  IntersectionExampleScenario.node[54].veinsmobility  posy  ETV
vector 55730  IntersectionExampleScenario.node[54].veinsmobility  speed  ETV
vector 55731  IntersectionExampleScenario.node[54].veinsmobility  acceleration  ETV
vector 55732  IntersectionExampleScenario.node[54].veinsmobility  co2emission  ETV
vector 55735  IntersectionExampleScenario.node[55].veinsmobility  posx  ETV
vector 55736  IntersectionExampleScenario.node[55].veinsmobility  posy  ETV
vector 55737  IntersectionExampleScenario.node[55].veinsmobility  speed  ETV
vector 55742  IntersectionExampleScenario.node[56].veinsmobility  posx  ETV
vector 55743  IntersectionExampleScenario.node[56].veinsmobility  posy  ETV
vector 55738  IntersectionExampleScenario.node[55].veinsmobility  acceleration  ETV
vector 55739  IntersectionExampleScenario.node[55].veinsmobility  co2emission  ETV
vector 55744  IntersectionExampleScenario.node[56].veinsmobility  speed  ETV
vector 55745  IntersectionExampleScenario.node[56].veinsmobility  acceleration  ETV
vector 55746  IntersectionExampleScenario.node[56].veinsmobility  co2emission  ETV
vector 55749  IntersectionExampleScenario.node[57].veinsmobility  posx  ETV
vector 55750  IntersectionExampleScenario.node[57].veinsmobility  posy  ETV
vector 55756  IntersectionExampleScenario.node[58].veinsmobility  posx  ETV
vector 55757  IntersectionExampleScenario.node[58].veinsmobility  posy  ETV
vector 55751  IntersectionExampleScenario.node[57].veinsmobility  speed  ETV
vector 55752  IntersectionExampleScenario.node[57].veinsmobility  acceleration  ETV
vector 55753  IntersectionExampleScenario.node[57].veinsmobility  co2emission  ETV
vector 55758  IntersectionExampleScenario.node[58].veinsmobility  speed  ETV
vector 55759  IntersectionExampleScenario.node[58].veinsmobility  acceleration  ETV
vector 55760  IntersectionExampleScenario.node[58].veinsmobility  co2emission  ETV
55557	1070267 7705 7454 14428 104 168.25 258 0.94600815583079 12.353032912318 653.6150659932 3440.3946835106
55556	1077972 7174 7454 14428 104 168.25 258 -7.3038549423218 4 41.566686630249 513.11031292151
55555	1085146 7242 7425 14428 103.75 168.25 259 0 16.625 2182.0561730862 32214.275047394
55554	1092388 8983 7396 14428 103.5 168.25 260 483.14999389648 732.88522338867 133597.82269287 69730013.781196
55553	1101371 8957 7396 14428 103.5 168.25 260 184.17810058594 486.85000610352 111207.92279053 49635453.107845
vector 55763  IntersectionExampleScenario.node[59].veinsmobility  posx  ETV
vector 55764  IntersectionExampleScenario.node[59].veinsmobility  posy  ETV
55585	1110482 6689 8904 14844 118.5 170.75 210 0.973 11.200708441096 556.05481619663 2673.4738641879
55584	1117171 6768 8904 14844 118.5 170.75 210 -3.9813892841339 2.5000004768372 36.813589096069 324.4498558384
55583	1123939 7196 8883 14844 118.25 170.75 211 0 15.02499961853 2218.5509066805 29113.795431884
55582	1131135 7363 8862 14844 118 170.75 212 483.14999389648 483.14999389648 102427.79870605 49487990.31966
55581	1138498 7330 8862 14844 118 170.75 212 184.17810058594 734.16610717773 95489.756958008 47263659.507556
vector 55765  IntersectionExampleScenario.node[59].veinsmobility  speed  ETV
vector 55766  IntersectionExampleScenario.node[59].veinsmobility  acceleration  ETV
vector 55767  IntersectionExampleScenario.node[59].veinsmobility  co2emission  ETV
55592	1146075 6467 9216 15090 122.5 172.25 200 0.973 11.200708441096 573.17949177199 2780.5050570997
55591	1152542 6714 9216 15090 122.5 172.25 200 -4.5 2.5 39.529638290405 347.8842022887
55590	1159256 6825 9195 15090 122.25 172.25 201 2.1313037872314 15.598306655884 2237.3524003029 29877.977168394
55589	1166081 7028 9174 15090 122 172.25 202 483.14999389648 483.14999389648 97596.29876709 47153651.153639
55588	1173109 6987 9174 15090 122 172.25 202 177.97814941406 732.51071166992 89470.633911133 43859474.494087
55599	1180096 6692 9346 15591 124 175.5 207 0.973 11.648172402475 589.61978098362 3107.5166498953
55598	1186788 6635 9346 15591 124 175.5 207 -4.5 2.5000019073486 38.341367721558 392.39185778839
55597	1193423 6924 9323 15591 123.75 175.5 208 1.9710265398026 15.64999961853 2282.3272640705 29719.952220842
55596	1200347 7263 9300 15591 123.5 175.5 209 236.00079345703 483.14999389648 92728.724884033 42170099.173879
55595	1207610 7245 9300 15591 123.5 175.5 209 160.78436279297 483.14999389648 83057.091705322 35202718.967976
55613	1214855 5961 9860 15628 130.25 175.75 183 0.973 11.990504229548 552.90277032762 3028.1461565386
55612	1220816 5902 9860 15628 130.25 175.75 183 -4.5 2.5 41.057416915894 344.91809573389
55611	1226718 6184 9839 15628 130 175.75 184 2.5960011482239 16.125 2113.7628519535 28256.949871181
55610	1232902 6466 9818 15628 129.75 175.75 185 483.14999389648 483.14999389648 89382.74887085 43185274.571402
55609	1239368 6432 9818 15628 129.75 175.75 185 208.75543212891 731.76788330078 83657.845123291 41378016.222913
vector 55770  IntersectionExampleScenario.node[60].veinsmobility  posx  ETV
vector 55771  IntersectionExampleScenario.node[60].veinsmobility  posy  ETV
vector 55772  IntersectionExampleScenario.node[60].veinsmobility  speed  ETV
vector 55773  IntersectionExampleScenario.node[60].veinsmobility  acceleration  ETV
vector 55774  IntersectionExampleScenario.node[60].veinsmobility  co2emission  ETV
55606	1246201 6740 9657 16047 127.75 178.5 204 0.973 11.54047740176 606.37304571088 3120.9157861798
55605	1252941 6596 9657 16047 127.75 178.5 204 -4.5 2.5000019073486 38.511121749878 436.18221165716
55604	1259537 6927 9636 16047 127.5 178.5 205 2.1707186698914 15.5 2302.4033792019 29434.299275711
55603	1266464 7191 9615 16047 127.25 178.5 206 483.14999389648 483.14999389648 99528.898742676 48087386.820047
55602	1273655 7157 9615 16047 127.25 178.5 206 164.52032470703 735.08070373535 88495.160720825 43003182.092183
55627	1280812 6545 10227 17124 135 185.5 203 0.973 11.450879080643 563.67336947008 2819.2142573342
55626	1287357 6063 10227 17124 135 185.5 203 -6.7711477279663 4 36.98334312439 456.08212473492
55625	1293420 6416 10206 17124 134.75 185.5 204 0 15.375 2209.3353545666 30725.485793837
55624	1299836 7168 10185 17124 134.5 185.5 205 237.32635498047 785.82187652588 105836.65601349 58855907.697121
55623	1307004 7175 10185 17124 134.5 185.5 205 483.14999389648 483.14999389648 99045.748748779 47853952.903445
55648	1314179 6591 10459 17264 137.5 186.5 197 0.973 11.450879080643 571.72483254073 2848.0327315098
55647	1320770 6164 10459 17264 137.5 186.5 197 -4.5 2.5 38.511121749878 435.12540653676
55646	1326934 6714 10432 17264 137.25 186.5 198 0 15.375 2265.1853393484 31617.803077217
55645	1333648 6950 10405 17264 137 186.5 199 483.13467407227 801.41563415527 112539.42515564 65807561.232945
55644	1340598 6951 10405 17264 137 186.5 199 483.14999389648 732.07165527344 104460.55705261 55865560.878617
55655	1347549 6371 10753 17568 140.25 188.75 195 0.973 11.200708441096 542.83175772322 2670.3871331528
55654	1353920 6364 10753 17568 140.25 188.75 195 -3.0092926025391 2.5 35.795072555542 307.66785450083
55653	1360284 6678 10726 17568 140 188.75 196 2.7418122291565 15.02499961853 2295.9529809952 30003.867277321
55652	1366962 6869 10699 17568 139.75 188.75 197 238.49273681641 807.84220123291 104711.11962891 60409975.352287
55651	1373831 6896 10699 17568 139.75 188.75 197 483.14999389648 483.14999389648 95180.548797607 45986481.570628
55669	1380727 5780 11363 17730 146 190 177 0.973 12.039413726625 566.3975765578 3035.9737581413
55668	1386507 5877 11363 17730 146 190 177 -4.5 2.5000019073486 42.170553207397 333.6735307985
55667	1392384 6009 11334 17730 145.75 190 178 4.1423902511597 16.192638397217 2233.1167240143 30802.764427931
55666	1398393 6243 11305 17730 145.5 190 179 236.98266601562 790.09062194824 94449.62071228 54002143.997296
55665	1404636 6264 11305 17730 145.5 190 179 483.14999389648 483.14999389648 86483.848907471 41784671.071789
vector 55777  IntersectionExampleScenario.node[61].veinsmobility  posx  ETV
vector 55778  IntersectionExampleScenario.node[61].veinsmobility  posy  ETV
vector 55779  IntersectionExampleScenario.node[61].veinsmobility  speed  ETV
vector 55780  IntersectionExampleScenario.node[61].veinsmobility  acceleration  ETV
vector 55781  IntersectionExampleScenario.node[61].veinsmobility  co2emission  ETV
55641	1411301 7776 10405 18860 137 200.5 255 0.973 11.990504229548 643.94254118003 3104.288869077
55640	1419077 7162 10405 18860 137 200.5 255 -4.5 2.5 41.227170944214 490.78543267833
55639	1426239 7371 10380 18860 136.75 200.5 256 0 16.125 2179.4450001717 31689.408546257
55638	1433610 8838 10355 18860 136.5 200.5 257 192.13122558594 732.05700683594 117461.48558044 57537234.223183
55637	1442448 8995 10355 18860 136.5 200.5 257 486.85000610352 486.85000610352 125120.4515686 60914892.609849
55620	1451443 8186 10128 18860 133.75 200.5 268 0.973 11.36141391502 626.68076604097 2846.9812479632
55619	1459629 7327 10128 18860 133.75 200.5 268 -7.4570107460022 4 37.32285118103 467.27675203522
55618	1466956 7707 10109 18860 133.5 200.5 269 0 15.25 2179.3544102907 30207.236966131
55617	1474663 9423 10090 18860 133.25 200.5 270 184.17810058594 483.36395263672 115201.78137207 51263654.273585
55616	1484086 9387 10090 18860 133.25 200.5 270 486.85000610352 733.68673706055 139800.32594299 73498116.337755
vector 55784  IntersectionExampleScenario.node[62].veinsmobility  posx  ETV
vector 55785  IntersectionExampleScenario.node[62].veinsmobility  posy  ETV
vector 55786  IntersectionExampleScenario.node[62].veinsmobility  speed  ETV
vector 55787  IntersectionExampleScenario.node[62].veinsmobility  acceleration  ETV
vector 55788  IntersectionExampleScenario.node[62].veinsmobility  co2emission  ETV
vector 55791  IntersectionExampleScenario.node[63].veinsmobility  posx  ETV
vector 55792  IntersectionExampleScenario.node[63].veinsmobility  posy  ETV
vector 55798  IntersectionExampleScenario.node[64].veinsmobility  posx  ETV
vector 55799  IntersectionExampleScenario.node[64].veinsmobility  posy  ETV
vector 55793  IntersectionExampleScenario.node[63].veinsmobility  speed  ETV
vector 55794  IntersectionExampleScenario.node[63].veinsmobility  acceleration  ETV
vector 55795  IntersectionExampleScenario.node[63].veinsmobility  co2emission  ETV
vector 55800  IntersectionExampleScenario.node[64].veinsmobility  speed  ETV
vector 55801  IntersectionExampleScenario.node[64].veinsmobility  acceleration  ETV
vector 55802  IntersectionExampleScenario.node[64].veinsmobility  co2emission  ETV
55634	1494676 8606 10380 19017 136.75 202.25 263 0.973 11.990504229548 677.72868076282 3297.5203413299
55633	1503282 8532 10380 19017 136.75 202.25 263 -4.5 2.5000019073486 46.517541885376 443.51458758029
55632	1511814 8869 10355 19017 136.5 202.25 264 0 16.280271530151 2261.3541469872 32437.646635104
55631	1520683 9253 10332 19017 136.25 202.25 265 171.40313720703 731.24711608887 117656.76261902 56694238.795024
55630	1529936 9276 10332 19017 136.25 202.25 265 486.85000610352 486.85000610352 129015.25161743 62811076.037393
vector 55805  IntersectionExampleScenario.node[65].veinsmobility  posx  ETV
vector 55806  IntersectionExampleScenario.node[65].veinsmobility  posy  ETV
vector 55807  IntersectionExampleScenario.node[65].veinsmobility  speed  ETV
vector 55808  IntersectionExampleScenario.node[65].veinsmobility  acceleration  ETV
vector 55809  IntersectionExampleScenario.node[65].veinsmobility  co2emission  ETV
vector 55812  IntersectionExampleScenario.node[66].veinsmobility  posx  ETV
vector 55813  IntersectionExampleScenario.node[66].veinsmobility  posy  ETV
vector 55814  IntersectionExampleScenario.node[66].veinsmobility  speed  ETV
vector 55815  IntersectionExampleScenario.node[66].veinsmobility  acceleration  ETV
vector 55816  IntersectionExampleScenario.node[66].veinsmobility  co2emission  ETV
55662	1540014 7889 11143 19335 144 205.5 247 0.973 11.648172402475 600.50083589285 2926.2548310627
55661	1547903 8336 11143 19335 144 205.5 247 -3.8397426605225 2.5 38.341367721558 336.48783496055
55660	1556239 8448 11116 19335 143.75 205.5 248 0 15.64999961853 2214.7673219293 29366.133763336
55659	1564687 8657 11089 19335 143.5 205.5 249 184.17810058594 732.75216674805 111468.41325378 54047735.91652
55658	1573344 8715 11089 19335 143.5 205.5 249 486.85000610352 486.85000610352 121225.65151978 59018709.182305
55676	1582059 7729 11541 19480 147.5 207 239 0.973 12.353032912318 647.28958666679 3410.9851024202
55675	1589788 7977 11541 19480 147.5 207 239 -4.5 2.5 42.754949569702 437.99850521189
55674	1597765 8096 11510 19480 147.25 207 240 0 16.625 2238.9376554191 30618.20033912
55673	1605861 8401 11479 19480 147 207 241 174.53436279297 486.85000610352 98500.98727417 42244872.706129
55672	1614262 8431 11479 19480 147 207 241 239.27844238281 486.85000610352 109606.91598511 50872794.566741
vector 55819  IntersectionExampleScenario.node[67].veinsmobility  posx  ETV
vector 55820  IntersectionExampleScenario.node[67].veinsmobility  posy  ETV
vector 55821  IntersectionExampleScenario.node[67].veinsmobility  speed  ETV
55683	1622925 7846 11793 19735 149.5 209.75 242 0.973 12.099024792222 649.85502268618 3444.0654750756
55682	1630771 7961 11793 19735 149.5 209.75 242 -3.8202393054962 2.5 40.548154830933 456.31879678439
55681	1638732 8161 11760 19735 149.25 209.75 243 0 16.27499961853 2275.0741290357 29966.554614512
55680	1646893 8503 11727 19735 149 209.75 244 161.25622558594 483.14999389648 98034.077972412 41568741.272809
55679	1655396 8539 11727 19735 149 209.75 244 486.85000610352 732.95637512207 126702.14875793 66828002.521982
vector 55822  IntersectionExampleScenario.node[67].veinsmobility  acceleration  ETV
vector 55823  IntersectionExampleScenario.node[67].veinsmobility  co2emission  ETV
vector 55826  IntersectionExampleScenario.node[68].veinsmobility  posx  ETV
vector 55827  IntersectionExampleScenario.node[68].veinsmobility  posy  ETV
vector 55828  IntersectionExampleScenario.node[68].veinsmobility  speed  ETV
vector 55829  IntersectionExampleScenario.node[68].veinsmobility  acceleration  ETV
vector 55830  IntersectionExampleScenario.node[68].veinsmobility  co2emission  ETV
vector 55833  IntersectionExampleScenario.node[69].veinsmobility  posx  ETV
vector 55834  IntersectionExampleScenario.node[69].veinsmobility  posy  ETV
vector 55835  IntersectionExampleScenario.node[69].veinsmobility  speed  ETV
55690	1664737 7502 12443 20172 154.5 214 239 0.973 10.916047529558 567.46646293849 2595.6949525778
55689	1672239 7667 12443 20172 154.5 214 239 -4.5 2.5 34.267293930054 339.28018004322
55688	1679906 7829 12411 20172 154.25 214 240 0 14.625 2229.0865754187 26771.846739984
55687	1687735 8412 12378 20172 154 214 241 174.29547119141 483.14999389648 96944.586120605 41039821.355606
55686	1696147 8425 12378 20172 154 214 241 486.84997558594 734.6205291748 126172.01083374 67189736.226629
55711	1704572 7028 12892 20172 158 214 225 0.973 11.90022389248 602.72598070338 3108.9081402535
55710	1711600 6635 12892 20172 158 214 225 -8.6358022689819 4 39.020376205444 507.82251116825
55709	1718235 6790 12857 20172 157.75 214 226 0 16 2207.9874167442 31650.642986505
55708	1725025 7944 12822 20172 157.5 214 227 486.85000610352 486.85000610352 110514.9513855 53804204.756559
55707	1732969 7937 12822 20172 157.5 214 227 237.58947753906 785.82187652588 116839.16663361 64255482.440536
vector 55836  IntersectionExampleScenario.node[69].veinsmobility  acceleration  ETV
vector 55837  IntersectionExampleScenario.node[69].veinsmobility  co2emission  ETV
55704	1741075 7376 12789 20337 157.25 215.5 234 0.973 11.200708441096 588.99285752436 2628.0795543733
55703	1748451 7291 12789 20337 157.25 215.5 234 -8.8170804977417 4 36.613920211792 454.74191719628
55702	1755742 7284 12756 20337 157 215.5 235 0 15.02499961853 2212.1415934563 30044.612850218
55701	1763026 8260 12723 20337 156.75 215.5 236 483.14999389648 483.14999389648 114023.39855957 55090404.318113
55700	1771286 8227 12723 20337 156.75 215.5 236 184.17810058594 733.59004211426 107886.96157837 53632057.742123
55732	1779513 7199 13487 20391 162.25 216 216 0.973 11.36141391502 570.29950660017 2768.6215326254
55731	1786712 7076 13487 20391 162.25 216 216 -4.5 2.5000009536743 37.15309715271 423.78622539683
55730	1793788 7294 13450 20391 162 216 217 0 15.25 2111.3742670007 28590.714636349
55729	1801082 7623 13413 20391 161.75 216 218 486.85000610352 733.21461486816 114472.61340332 61157663.762255
55728	1808705 7604 13413 20391 161.75 216 218 486.85000610352 767.98204040527 119791.58492279 67479594.647403
55746	1816309 6726 13887 20526 165 217.25 210 0.973 11.200708441096 552.82799347761 2511.2173440372
55745	1823035 7033 13887 20526 165 217.25 210 -3.7918243408203 2.5 36.98334312439 294.14189629211
55744	1830068 7344 13848 20526 164.75 217.25 211 0 15.02499961853 2214.7844153419 29043.511174206
55743	1837412 7420 13809 20526 164.5 217.25 212 483.14999389648 483.14999389648 102427.79870605 49487990.31966
55742	1844832 7377 13809 20526 164.5 217.25 212 184.17810058594 733.24858093262 95480.474365234 47227688.979785
55725	1852209 7455 13343 20553 161.25 217.5 226 0.973 11.54047740176 629.47017211588 3067.2443567896
55724	1859664 7173 13343 20553 161.25 217.5 226 -4.5 2.5000009536743 39.529638290405 493.49577281212
55723	1866837 7728 13308 20553 161 217.5 227 0 15.572020530701 2259.7578089852 30608.051942324
55722	1874565 7980 13273 20553 160.75 217.5 228 486.85000610352 486.85000610352 111001.8013916 54041227.685002
55721	1882545 7953 13273 20553 160.75 217.5 228 236.54333496094 797.07032012939 120715.55263519 68542627.52389
55767	1890498 6454 14926 20958 171.25 221.25 201 0.973 11.200708441096 542.61609574112 2676.0718245176
55766	1896952 6501 14926 20958 171.25 221.25 201 -3.561469078064 2.5000019073486 35.795072555542 320.57022748249
55765	1903453 6789 14885 20958 171 221.25 202 2.1155595779419 15.02499961853 2213.9852457047 28118.834123658
55764	1910242 7097 14844 20958 170.75 221.25 203 235.39819335938 486.85000610352 89974.707397461 40977721.487396
55763	1917339 7087 14844 20958 170.75 221.25 203 483.14999389648 785.82187652588 114520.23847198 66481447.816837
vector 55840  IntersectionExampleScenario.node[70].veinsmobility  posx  ETV
vector 55841  IntersectionExampleScenario.node[70].veinsmobility  posy  ETV
vector 55847  IntersectionExampleScenario.node[71].veinsmobility  posx  ETV
vector 55848  IntersectionExampleScenario.node[71].veinsmobility  posy  ETV
55774	1924734 5896 15891 21093 177.5 222.5 181 0.973 11.200708441096 528.77982629289 2636.8698772964
55773	1930630 5872 15891 21093 177.5 222.5 181 -3.2809143066406 2.5 38.511121749878 280.99935838381
55772	1936502 6103 15852 21093 177.25 222.5 182 4.3639154434204 15.314660072327 2201.7802939415 29152.556866872
55771	1942605 6395 15813 21093 177 222.5 183 238.10113525391 486.85000610352 80786.004425049 36662200.440599
55770	1949000 6389 15813 21093 177 222.5 183 483.11917114258 785.82187652588 103943.88944244 60845978.416994
vector 55842  IntersectionExampleScenario.node[70].veinsmobility  speed  ETV
vector 55849  IntersectionExampleScenario.node[71].veinsmobility  speed  ETV
vector 55843  IntersectionExampleScenario.node[70].veinsmobility  acceleration  ETV
vector 55844  IntersectionExampleScenario.node[70].veinsmobility  co2emission  ETV
vector 55850  IntersectionExampleScenario.node[71].veinsmobility  acceleration  ETV
vector 55851  IntersectionExampleScenario.node[71].veinsmobility  co2emission  ETV
vector 55854  IntersectionExampleScenario.node[72].veinsmobility  posx  ETV
vector 55855  IntersectionExampleScenario.node[72].veinsmobility  posy  ETV
vector 55856  IntersectionExampleScenario.node[72].veinsmobility  speed  ETV
vector 55857  IntersectionExampleScenario.node[72].veinsmobility  acceleration  ETV
vector 55858  IntersectionExampleScenario.node[72].veinsmobility  co2emission  ETV
vector 55861  IntersectionExampleScenario.node[73].veinsmobility  posx  ETV
vector 55862  IntersectionExampleScenario.node[73].veinsmobility  posy  ETV
vector 55863  IntersectionExampleScenario.node[73].veinsmobility  speed  ETV
vector 55864  IntersectionExampleScenario.node[73].veinsmobility  acceleration  ETV
vector 55865  IntersectionExampleScenario.node[73].veinsmobility  co2emission  ETV
vector 55868  IntersectionExampleScenario.node[74].veinsmobility  posx  ETV
vector 55869  IntersectionExampleScenario.node[74].veinsmobility  posy  ETV
vector 55870  IntersectionExampleScenario.node[74].veinsmobility  speed  ETV
vector 55871  IntersectionExampleScenario.node[74].veinsmobility  acceleration  ETV
vector 55872  IntersectionExampleScenario.node[74].veinsmobility  co2emission  ETV
55718	1957086 8681 13134 22136 159.75 230.75 285 0.973 11.200708441096 639.74994696584 2783.5498541508
55717	1965767 7582 13134 22136 159.75 230.75 285 -43.551456451416 4 35.795072555542 2191.4907456282
55716	1973349 8080 13099 22136 159.5 230.75 286 0 15.02499961853 2206.8432073593 30727.39876299
55715	1981429 10037 13064 22136 159.25 230.75 287 238.29931640625 785.82187652588 146683.47336578 79240130.034258
55714	1991466 10047 13064 22136 159.25 230.75 287 483.14999389648 483.14999389648 138664.04824829 66995534.064823
vector 55875  IntersectionExampleScenario.node[75].veinsmobility  posx  ETV
vector 55876  IntersectionExampleScenario.node[75].veinsmobility  posy  ETV
vector 55877  IntersectionExampleScenario.node[75].veinsmobility  speed  ETV
vector 55878  IntersectionExampleScenario.node[75].veinsmobility  acceleration  ETV
vector 55879  IntersectionExampleScenario.node[75].veinsmobility  co2emission  ETV
vector 55882  IntersectionExampleScenario.node[76].veinsmobility  posx  ETV
vector 55883  IntersectionExampleScenario.node[76].veinsmobility  posy  ETV
vector 55884  IntersectionExampleScenario.node[76].veinsmobility  speed  ETV
vector 55885  IntersectionExampleScenario.node[76].veinsmobility  acceleration  ETV
vector 55886  IntersectionExampleScenario.node[76].veinsmobility  co2emission  ETV
vector 55889  IntersectionExampleScenario.node[77].veinsmobility  posx  ETV
vector 55890  IntersectionExampleScenario.node[77].veinsmobility  posy  ETV
vector 55891  IntersectionExampleScenario.node[77].veinsmobility  speed  ETV
vector 55892  IntersectionExampleScenario.node[77].veinsmobility  acceleration  ETV
vector 55893  IntersectionExampleScenario.node[77].veinsmobility  co2emission  ETV
vector 55896  IntersectionExampleScenario.node[78].veinsmobility  posx  ETV
vector 55897  IntersectionExampleScenario.node[78].veinsmobility  posy  ETV
vector 55898  IntersectionExampleScenario.node[78].veinsmobility  speed  ETV
vector 55899  IntersectionExampleScenario.node[78].veinsmobility  acceleration  ETV
vector 55900  IntersectionExampleScenario.node[78].veinsmobility  co2emission  ETV
vector 55903  IntersectionExampleScenario.node[79].veinsmobility  posx  ETV
vector 55904  IntersectionExampleScenario.node[79].veinsmobility  posy  ETV
vector 55905  IntersectionExampleScenario.node[79].veinsmobility  speed  ETV
vector 55906  IntersectionExampleScenario.node[79].veinsmobility  acceleration  ETV
vector 55907  IntersectionExampleScenario.node[79].veinsmobility  co2emission  ETV
55795	2003518 5367 18994 23530 202 241 157 0.973 11.54047740176 464.515727801 2331.5343583805
55794	2008885 4855 18994 23530 202 241 157 -3.6199722290039 2.5 36.98334312439 185.99759120812
55793	2013740 5277 18970 23530 201.75 241 158 5.6500000953674 15.5 2220.1634054184 31769.100361968
55792	2019017 5557 18947 23530 201.5 241 159 235.88525390625 785.82187652588 82773.169471741 47318648.965285
55791	2024574 5564 18947 23530 201.5 241 159 483.14999389648 483.14999389648 76820.849029541 37115992.739745
55697	2030138 10598 12756 24143 157 245.5 355 0.973 11.450879080643 763.97908238038 3269.061580965
55696	2040736 9972 12756 24143 157 245.5 355 -8.5036373138428 4 36.813589096069 745.0943931246
55695	2050708 10263 12723 24143 156.75 245.5 356 0 15.375 2275.973985672 28922.766087349
55694	2060971 12288 12691 24143 156.5 245.5 357 163.64306640625 486.85000610352 151182.70501709 66637279.58669
55693	2073259 12485 12691 24143 156.5 245.5 357 238.42358398438 486.85003662109 165307.86190796 77751027.715432
55760	2085744 10125 14170 24410 166.75 247.75 325 0.973 11.450879080643 714.64179761924 3190.9200394404
55759	2095869 10198 14170 24410 166.75 247.75 325 -4.5 2.5 39.359884262085 552.12764498621
55758	2106067 10402 14127 24410 166.5 247.75 326 0 15.513055801392 2062.784159292 26610.481966321
55757	2116469 11417 14084 24410 166.25 247.75 327 217.29217529297 486.98748779297 141324.77655029 62617777.848566
55756	2127886 11437 14084 24410 166.25 247.75 327 238.34661865234 486.85000610352 151014.11187744 70889693.470231
vector 55910  IntersectionExampleScenario.node[80].veinsmobility  posx  ETV
vector 55911  IntersectionExampleScenario.node[80].veinsmobility  posy  ETV
vector 55912  IntersectionExampleScenario.node[80].veinsmobility  speed  ETV
vector 55913  IntersectionExampleScenario.node[80].veinsmobility  acceleration  ETV
vector 55914  IntersectionExampleScenario.node[80].veinsmobility  co2emission  ETV
55739	2139724 10969 13809 24668 164.5 250 343 0.973 11.90022389248 788.55118623944 3514.5663013014
55738	2150693 11445 13809 24668 164.5 250 343 -4.5 2.5 39.869146347046 645.73731563742
55737	2162138 11556 13772 24668 164.25 250 344 0 16 2207.6567884488 27104.23374554
55736	2173694 12036 13735 24668 164 250 345 184.17810058594 486.85000610352 143891.71343994 62342315.327676
55735	2185730 12063 13735 24668 164 250 345 236.32312011719 486.85000610352 159718.22149658 75120145.257489
vector 55917  IntersectionExampleScenario.node[81].veinsmobility  posx  ETV
vector 55918  IntersectionExampleScenario.node[81].veinsmobility  posy  ETV
vector 55919  IntersectionExampleScenario.node[81].veinsmobility  speed  ETV
vector 55920  IntersectionExampleScenario.node[81].veinsmobility  acceleration  ETV
vector 55921  IntersectionExampleScenario.node[81].veinsmobility  co2emission  ETV
55753	2198194 11092 14127 24899 166.5 252 343 0.973 11.800332917294 730.69364347262 3030.584671727
55752	2209286 11711 14127 24899 166.5 252 343 -4.5 2.5 38.680875778198 420.18654632888
55751	2220997 11803 14084 24899 166.25 252 344 0 15.861469268799 2293.3779696357 27460.192991932
55750	2232800 12016 14043 24899 166 252 345 166.078125 734.81965637207 149411.60832214 69664682.138076
55749	2244816 12073 14043 24899 166 252 345 486.85000610352 486.85000610352 167963.25210571 81772910.312833
55788	2256889 6670 18926 25093 201.25 253.75 211 0.973 12.099024792222 583.23085291161 3064.5826490112
55787	2263559 6918 18926 25093 201.25 253.75 211 -3.9495823383331 2.5 40.038900375366 358.76139918863
55786	2270477 7163 18904 25093 201 253.75 212 0 16.27499961853 2225.8359557986 29906.405241862
55785	2277640 7422 18881 25093 200.75 253.75 213 184.17810058594 735.07470703125 94751.243896484 46273694.42001
55784	2285062 7456 18881 25093 200.75 253.75 213 486.85000610352 486.85000610352 103699.05130005 50485883.758357
vector 55924  IntersectionExampleScenario.node[82].veinsmobility  posx  ETV
vector 55925  IntersectionExampleScenario.node[82].veinsmobility  posy  ETV
vector 55926  IntersectionExampleScenario.node[82].veinsmobility  speed  ETV
vector 55927  IntersectionExampleScenario.node[82].veinsmobility  acceleration  ETV
vector 55928  IntersectionExampleScenario.node[82].veinsmobility  co2emission  ETV
55781	2292919 7584 18604 25647 197.75 259 246 0.973 11.90022389248 628.05940992329 3147.9861366542
55780	2300503 6935 18604 25647 197.75 259 246 -7.2641291618347 4 39.699392318726 488.74806203163
55779	2307438 7239 18577 25647 197.5 259 247 0 16 2217.2994669676 32035.832177997
55778	2314677 8680 18550 25647 197.25 259 248 486.85000610352 486.85000610352 120738.80151367 58781686.253862
55777	2323357 8669 18550 25647 197.25 259 248 235.46020507812 785.82187652588 127179.80261993 69356611.907694
55851	2332026 5341 21155 25922 223 261.75 156 0.97223939240464 11.648172402475 492.14756265096 2642.1924718167
55850	2337367 4806 21155 25922 223 261.75 156 -4.0569152832031 2.5 38.680875778198 242.46457769804
55849	2342173 5213 21124 25922 222.75 261.75 157 5.6500000953674 15.64999961853 2203.1433601379 31848.468064158
55848	2347386 5522 21093 25922 222.5 261.75 158 483.14999389648 732.75762939453 84674.011520386 46324230.979592
55847	2352908 5508 21093 25922 222.5 261.75 158 184.17810058594 487.02737426758 62846.969909668 26764852.304686
55802	2358416 7989 19017 26037 202.25 263 244 0.973 10.756497587458 573.80596942538 2447.0320289114
55801	2366405 8221 19017 26037 202.25 263 244 -3.8298075199127 2.5 34.097539901733 314.60428495116
55800	2374626 8436 18994 26037 202 263 245 0 14.39999961853 2215.0831499361 28430.864910616
55799	2383062 8609 18970 26037 201.75 263 246 486.85000610352 486.85000610352 119765.10150146 58307640.396976
55798	2391671 8578 18970 26037 201.75 263 246 236.35736083984 785.82187652588 126971.95751953 69924220.837796
55809	2400249 7914 19136 26124 203.5 264 243 0.973 11.90022389248 635.17224793472 3001.0902810094
55808	2408163 8087 19136 26124 203.5 264 243 -4.5 2.5 39.699392318726 447.62988746886
55807	2416250 8258 19111 26124 203.25 264 244 0 16 2287.5795267634 30871.194571511
55806	2424508 8567 19086 26124 203 264 245 237.64001464844 486.85000610352 111099.67807007 51464649.650618
55805	2433075 8549 19086 26124 203 264 245 483.12677001953 807.09531402588 137420.25125122 79396910.48731
vector 55931  IntersectionExampleScenario.node[83].veinsmobility  posx  ETV
vector 55932  IntersectionExampleScenario.node[83].veinsmobility  posy  ETV
vector 55933  IntersectionExampleScenario.node[83].veinsmobility  speed  ETV
55816	2441856 7893 19285 26272 205 265.75 244 0.973 10.756497587458 637.30513490064 2852.9090653938
55815	2449749 8362 19285 26272 205 265.75 244 -4.5 2.5000019073486 40.038900375366 425.18252115139
55814	2458111 8368 19260 26272 204.75 265.75 245 0 15.707060813904 2337.6871597022 31301.186472645
55813	2466479 8611 19235 26272 204.5 265.75 246 486.85000610352 486.85000610352 119765.10150146 58307640.396976
55812	2475090 8588 19235 26272 204.5 265.75 246 237.37817382812 816.75234985352 131583.76755524 75178351.874607
vector 55934  IntersectionExampleScenario.node[83].veinsmobility  acceleration  ETV
vector 55935  IntersectionExampleScenario.node[83].veinsmobility  co2emission  ETV
55837	2483847 7010 20201 26552 214.25 269.25 221 0.973 11.648172402475 588.60372349172 3104.0224938703
55836	2490857 7136 20201 26552 214.25 269.25 221 -3.8097877502441 2.5 38.341367721558 392.3771135795
55835	2497993 7415 20172 26552 214 269.25 222 0 15.64999961853 2186.9355495013 27985.841655838
55834	2505408 7802 20143 26552 213.75 269.25 223 486.85000610352 733.58378601074 116787.43847656 62207003.9483
55833	2513210 7787 20143 26552 213.75 269.25 223 486.85000610352 785.82187652588 125464.92005157 72421263.763105
vector 55938  IntersectionExampleScenario.node[84].veinsmobility  posx  ETV
vector 55939  IntersectionExampleScenario.node[84].veinsmobility  posy  ETV
vector 55940  IntersectionExampleScenario.node[84].veinsmobility  speed  ETV
vector 55941  IntersectionExampleScenario.node[84].veinsmobility  acceleration  ETV
vector 55942  IntersectionExampleScenario.node[84].veinsmobility  co2emission  ETV
vector 55945  IntersectionExampleScenario.node[85].veinsmobility  posx  ETV
vector 55946  IntersectionExampleScenario.node[85].veinsmobility  posy  ETV
vector 55952  IntersectionExampleScenario.node[86].veinsmobility  posx  ETV
vector 55953  IntersectionExampleScenario.node[86].veinsmobility  posy  ETV
vector 55947  IntersectionExampleScenario.node[85].veinsmobility  speed  ETV
vector 55948  IntersectionExampleScenario.node[85].veinsmobility  acceleration  ETV
vector 55949  IntersectionExampleScenario.node[85].veinsmobility  co2emission  ETV
vector 55954  IntersectionExampleScenario.node[86].veinsmobility  speed  ETV
vector 55955  IntersectionExampleScenario.node[86].veinsmobility  acceleration  ETV
vector 55956  IntersectionExampleScenario.node[86].veinsmobility  co2emission  ETV
55886	2522200 5297 22438 26777 233 272 157 0.973 11.54047740176 483.46715721304 2659.6982611259
55885	2527497 5153 22438 26777 233 272 157 -3.1701049804688 2.5 36.98334312439 209.56728813658
55884	2532650 5286 22403 26777 232.75 272 158 5.6500000953674 15.5 2214.1285057068 31593.811062265
55883	2537936 5564 22368 26777 232.5 272 159 486.85000610352 486.85000610352 77409.150970459 37686645.622436
55882	2543500 5536 22368 26777 232.5 272 159 237.06317138672 785.82187652588 82911.964653015 47440686.040448
vector 55959  IntersectionExampleScenario.node[87].veinsmobility  posx  ETV
vector 55960  IntersectionExampleScenario.node[87].veinsmobility  posy  ETV
vector 55961  IntersectionExampleScenario.node[87].veinsmobility  speed  ETV
vector 55962  IntersectionExampleScenario.node[87].veinsmobility  acceleration  ETV
vector 55963  IntersectionExampleScenario.node[87].veinsmobility  co2emission  ETV
55823	2549437 8011 19760 27073 210 275.25 262 0.973 11.648172402475 631.48416147086 2993.5757149088
55822	2557448 7278 19760 27073 210 275.25 262 -7.03919506073 4 38.341367721558 478.13103295482
55821	2564726 7587 19735 27073 209.75 275.25 263 0 15.64999961853 2200.0624997616 31109.684844129
55820	2572313 9235 19710 27073 209.5 275.25 264 483.14999389648 785.82187652588 143312.43566132 79910170.111467
55819	2581548 9236 19710 27073 209.5 275.25 264 483.14999389648 732.70495605469 135926.54718018 71111847.124972
55830	2590784 8374 20089 27263 213.25 277.5 258 0.973 11.648172402475 630.2063903085 2966.5763901073
55829	2599158 8363 20089 27263 213.25 277.5 258 -4.5 2.5 38.511121749878 414.55632586468
55828	2607521 8468 20062 27263 213 277.5 259 0 15.64999961853 2246.0385678411 31304.116621908
55827	2615989 9082 20035 27263 212.75 277.5 260 482.9059753418 797.07032012939 142946.11238098 80839711.252042
55826	2625071 9090 20035 27263 212.75 277.5 260 483.14999389648 732.21139526367 133945.12130737 70119362.611719
vector 55966  IntersectionExampleScenario.node[88].veinsmobility  posx  ETV
vector 55967  IntersectionExampleScenario.node[88].veinsmobility  posy  ETV
vector 55968  IntersectionExampleScenario.node[88].veinsmobility  speed  ETV
vector 55969  IntersectionExampleScenario.node[88].veinsmobility  acceleration  ETV
vector 55970  IntersectionExampleScenario.node[88].veinsmobility  co2emission  ETV
55844	2634562 7293 21155 27439 223 279.75 228 0.973 11.810082123732 597.42184438674 3077.0416930278
55843	2641855 7544 21155 27439 223 279.75 228 -3.9064042568207 2.5000004768372 39.869146347046 344.80725273097
55842	2649399 7698 21124 27439 222.75 279.75 229 0 15.875 2191.5606122408 29134.642894896
55841	2657097 8033 21093 27439 222.5 279.75 230 486.85000610352 785.82187652588 128055.56169891 73170500.265533
55840	2665130 8048 21093 27439 222.5 279.75 230 235.43206787109 483.14999389648 103038.08206177 47206480.457867
55865	2673178 6875 21778 27628 228 282 217 0.973 11.648172402475 569.00738457549 2914.6272654171
55864	2680053 7243 21778 27628 228 282 217 -3.5055694580078 2.5 37.662351608276 332.61342034454
55863	2687296 7332 21745 27628 227.75 282 218 1.0088242292404 15.64999961853 2214.09588027 28511.592057814
55862	2694628 7636 21712 27628 227.5 282 219 483.14999389648 785.82187652588 122875.50054169 70814255.269361
55861	2702264 7656 21712 27628 227.5 282 219 483.14999389648 734.45825195312 114395.76325989 60856337.679138
vector 55973  IntersectionExampleScenario.node[89].veinsmobility  posx  ETV
vector 55974  IntersectionExampleScenario.node[89].veinsmobility  posy  ETV
vector 55975  IntersectionExampleScenario.node[89].veinsmobility  speed  ETV
vector 55976  IntersectionExampleScenario.node[89].veinsmobility  acceleration  ETV
vector 55977  IntersectionExampleScenario.node[89].veinsmobility  co2emission  ETV
55872	2710321 6923 22103 27760 230.5 283.5 213 0.973 11.648172402475 587.9736207847 2955.9561994147
55871	2717244 6975 22103 27760 230.5 283.5 213 -4.5 2.5 39.869146347046 388.68143088905
55870	2724219 7206 22070 27760 230.25 283.5 214 0.31291055679321 15.64999961853 2272.4533674419 30344.738664767
55869	2731425 7505 22037 27760 230 283.5 215 483.14364624023 801.41563415527 121984.67308044 71297019.729688
55868	2738930 7515 22037 27760 230 283.5 215 483.14999389648 733.01065063477 112085.45075989 59484844.460771
55893	2746445 6337 22781 27852 235.5 284.5 197 0.973 11.990504229548 572.2567378771 3123.2109703475
55892	2752782 6356 22781 27852 235.5 284.5 197 -2.8408737182617 2.5 40.208654403687 349.43670677628
55891	2759138 6681 22746 27852 235.25 284.5 198 1.3520675897598 16.125 2237.5310081244 29866.373252075
55890	2765819 6944 22711 27852 235 284.5 199 238.35650634766 792.1519317627 105530.91265869 60164529.055611
55889	2772763 6964 22711 27852 235 284.5 199 483.14999389648 483.14999389648 96146.8487854 46453349.403832
vector 55980  IntersectionExampleScenario.node[90].veinsmobility  posx  ETV
vector 55981  IntersectionExampleScenario.node[90].veinsmobility  posy  ETV
vector 55982  IntersectionExampleScenario.node[90].veinsmobility  speed  ETV
vector 55983  IntersectionExampleScenario.node[90].veinsmobility  acceleration  ETV
vector 55984  IntersectionExampleScenario.node[90].veinsmobility  co2emission  ETV
55879	2780128 7657 22335 28382 232.25 290.75 235 0.973 12.353032912318 633.70982141525 3153.0849880445
55878	2787785 7929 22335 28382 232.25 290.75 235 -3.880827665329 2.5000009536743 42.754949569702 379.45288617622
55877	2795714 7997 22302 28382 232 290.75 236 0 16.625 2212.0070199845 31415.843290097
55876	2803711 8257 22268 28382 231.75 290.75 237 184.17810058594 486.86706542969 99318.403839111 43602904.256808
55875	2811968 8283 22268 28382 231.75 290.75 237 235.99255371094 486.85000610352 107460.20376587 49781337.805741
vector 55987  IntersectionExampleScenario.node[91].veinsmobility  posx  ETV
vector 55988  IntersectionExampleScenario.node[91].veinsmobility  posy  ETV
vector 55989  IntersectionExampleScenario.node[91].veinsmobility  speed  ETV
55858	2820483 8137 21464 28421 225.5 291.25 264 0.973 11.00486315618 608.79270085571 2651.0854758099
55857	2828620 7378 21464 28421 225.5 291.25 264 -9.1510305404663 4 34.77654838562 477.44467475949
55856	2835998 7767 21433 28421 225.25 291.25 265 0 14.75 2217.2461197376 29917.657437369
55855	2843765 9268 21402 28421 225 291.25 266 184.17810058594 735.3327331543 122007.86593628 60365112.718904
55854	2853033 9309 21402 28421 225 291.25 266 486.85000610352 486.85000610352 129502.10162354 63048098.965836
vector 55990  IntersectionExampleScenario.node[91].veinsmobility  acceleration  ETV
vector 55991  IntersectionExampleScenario.node[91].veinsmobility  co2emission  ETV
vector 55994  IntersectionExampleScenario.node[92].veinsmobility  posx  ETV
vector 55995  IntersectionExampleScenario.node[92].veinsmobility  posy  ETV
vector 56001  IntersectionExampleScenario.node[93].veinsmobility  posx  ETV
vector 56002  IntersectionExampleScenario.node[93].veinsmobility  posy  ETV
vector 55996  IntersectionExampleScenario.node[92].veinsmobility  speed  ETV
vector 55997  IntersectionExampleScenario.node[92].veinsmobility  acceleration  ETV
vector 55998  IntersectionExampleScenario.node[92].veinsmobility  co2emission  ETV
vector 56003  IntersectionExampleScenario.node[93].veinsmobility  speed  ETV
vector 56004  IntersectionExampleScenario.node[93].veinsmobility  acceleration  ETV
vector 56005  IntersectionExampleScenario.node[93].veinsmobility  co2emission  ETV
55907	2863313 6911 23460 28684 240.5 294.5 217 0.973 11.36141391502 569.12579508516 2801.0956308822
55906	2870224 7019 23460 28684 240.5 294.5 217 -3.8217146396637 2.5 37.492597579956 354.65522886506
55905	2877243 7280 23425 28684 240.25 294.5 218 0 15.25 2192.1697960086 28205.440039315
55904	2884523 7637 23390 28684 240 294.5 219 184.17810058594 483.14999389648 89756.427185059 38659033.540489
[...]
59209	21035900 8379 176879 183288 1692.25 1760.25 273 0 16.27499961853 2204.4487438202 32862.43963204
59208	21044279 10121 176856 183288 1692 1760.25 274 239.27301025391 785.82187652588 140242.87448883 75754915.946283
59207	21054400 10137 176856 183288 1692 1760.25 274 483.14999389648 483.14999389648 132383.09832764 63960893.148995
59246	21064537 7233 178399 183473 1709.25 1762.25 213 0.96333723109819 12.099024792222 585.62053050338 3035.9475996276
59245	21071770 7824 178399 183473 1709.25 1762.25 213 -3.9715082645416 2.5 40.208654403687 329.44483265454
59244	21079594 7886 178374 183473 1709 1762.25 214 0 16.27499961853 2211.7546215355 29927.665129682
59243	21087480 7917 178349 183473 1708.75 1762.25 215 238.05169677734 785.82187652588 111873.27065277 62259430.179291
59242	21095397 7955 178349 183473 1708.75 1762.25 215 483.14999389648 483.14999389648 103877.24868774 50188292.069467
vector 59361  IntersectionExampleScenario.node[573].veinsmobility  posx  ETV
vector 59362  IntersectionExampleScenario.node[573].veinsmobility  posy  ETV
vector 59363  IntersectionExampleScenario.node[573].veinsmobility  speed  ETV
vector 59364  IntersectionExampleScenario.node[573].veinsmobility  acceleration  ETV
vector 59365  IntersectionExampleScenario.node[573].veinsmobility  co2emission  ETV
vector 59368  IntersectionExampleScenario.node[574].veinsmobility  posx  ETV
vector 59369  IntersectionExampleScenario.node[574].veinsmobility  posy  ETV
vector 59370  IntersectionExampleScenario.node[574].veinsmobility  speed  ETV
vector 59371  IntersectionExampleScenario.node[574].veinsmobility  acceleration  ETV
vector 59372  IntersectionExampleScenario.node[574].veinsmobility  co2emission  ETV
vector 59375  IntersectionExampleScenario.node[575].veinsmobility  posx  ETV
vector 59376  IntersectionExampleScenario.node[575].veinsmobility  posy  ETV
vector 59377  IntersectionExampleScenario.node[575].veinsmobility  speed  ETV
vector 59378  IntersectionExampleScenario.node[575].veinsmobility  acceleration  ETV
vector 59379  IntersectionExampleScenario.node[575].veinsmobility  co2emission  ETV
vector 59382  IntersectionExampleScenario.node[576].veinsmobility  posx  ETV
vector 59383  IntersectionExampleScenario.node[576].veinsmobility  posy  ETV
vector 59384  IntersectionExampleScenario.node[576].veinsmobility  speed  ETV
vector 59385  IntersectionExampleScenario.node[576].veinsmobility  acceleration  ETV
vector 59386  IntersectionExampleScenario.node[576].veinsmobility  co2emission  ETV
vector 59389  IntersectionExampleScenario.node[577].veinsmobility  posx  ETV
vector 59390  IntersectionExampleScenario.node[577].veinsmobility  posy  ETV
vector 59396  IntersectionExampleScenario.node[578].veinsmobility  posx  ETV
vector 59397  IntersectionExampleScenario.node[578].veinsmobility  posy  ETV
vector 59391  IntersectionExampleScenario.node[577].veinsmobility  speed  ETV
vector 59398  IntersectionExampleScenario.node[578].veinsmobility  speed  ETV
vector 59392  IntersectionExampleScenario.node[577].veinsmobility  acceleration  ETV
vector 59393  IntersectionExampleScenario.node[577].veinsmobility  co2emission  ETV
vector 59399  IntersectionExampleScenario.node[578].veinsmobility  acceleration  ETV
vector 59400  IntersectionExampleScenario.node[578].veinsmobility  co2emission  ETV
59260	21105788 8369 178960 184964 1714.75 1775.75 245 0.973 12.099024792222 623.3712707623 3228.9529163643
59259	21114157 8793 178960 184964 1714.75 1775.75 245 -3.9710800647736 2.5000000596046 41.227170944214 359.37259677734
59258	21122950 8937 178933 184964 1714.5 1775.75 246 0 16.27499961853 2220.3777448796 30836.457669554
59257	21131887 9095 178906 184964 1714.25 1775.75 247 184.17810058594 734.34567260742 111647.89215088 54520930.116599
59256	21140982 9141 178906 184964 1714.25 1775.75 247 486.85000610352 486.85000610352 120251.95150757 58544663.325419
59232	21150123 9201 177997 184964 1704.75 1775.75 285 0.973 11.36141391502 635.94863755438 2830.1728092577
59231	21159324 8704 177997 184964 1704.75 1775.75 285 -6.7693157196045 4 35.964826583862 443.3396308932
59230	21168028 8764 177976 184964 1704.5 1775.75 286 0 15.25 2266.1972520351 30903.34333853
59229	21176792 10601 177955 184964 1704.25 1775.75 287 162.00311279297 483.36395263672 121100.41766357 53698678.547281
59228	21187393 10553 177955 184964 1704.25 1775.75 287 486.85000610352 733.14964294434 148216.61767578 77685090.184676
vector 59403  IntersectionExampleScenario.node[579].veinsmobility  posx  ETV
vector 59404  IntersectionExampleScenario.node[579].veinsmobility  posy  ETV
vector 59405  IntersectionExampleScenario.node[579].veinsmobility  speed  ETV
vector 59406  IntersectionExampleScenario.node[579].veinsmobility  acceleration  ETV
vector 59407  IntersectionExampleScenario.node[579].veinsmobility  co2emission  ETV
vector 59410  IntersectionExampleScenario.node[580].veinsmobility  posx  ETV
vector 59411  IntersectionExampleScenario.node[580].veinsmobility  posy  ETV
vector 59412  IntersectionExampleScenario.node[580].veinsmobility  speed  ETV
vector 59413  IntersectionExampleScenario.node[580].veinsmobility  acceleration  ETV
vector 59414  IntersectionExampleScenario.node[580].veinsmobility  co2emission  ETV
vector 59417  IntersectionExampleScenario.node[581].veinsmobility  posx  ETV
vector 59418  IntersectionExampleScenario.node[581].veinsmobility  posy  ETV
vector 59419  IntersectionExampleScenario.node[581].veinsmobility  speed  ETV
vector 59420  IntersectionExampleScenario.node[581].veinsmobility  acceleration  ETV
vector 59421  IntersectionExampleScenario.node[581].veinsmobility  co2emission  ETV
59337	21199164 5411 182107 185886 1748.25 1785.75 151 0.973 12.099024792222 484.63932310442 2737.0470039873
59336	21204575 5145 182107 185886 1748.25 1785.75 151 -3.3015289306641 2.5 40.038900375366 214.29066905543
59335	21209720 5384 182084 185886 1748 1785.75 152 5.6500000953674 16.27499961853 2222.9441566467 33242.73370209
59334	21215104 5631 182063 185886 1747.75 1785.75 153 184.17810058594 734.58689880371 68646.693695068 34883161.033745
59333	21220735 5662 182063 185886 1747.75 1785.75 153 486.85000610352 486.85000610352 74488.050933838 36264508.051778
vector 59424  IntersectionExampleScenario.node[582].veinsmobility  posx  ETV
vector 59425  IntersectionExampleScenario.node[582].veinsmobility  posy  ETV
59288	21226553 8057 180343 186185 1728 1789 245 0.973 11.648172402475 614.26056878229 2991.7665738578
59287	21234610 7555 180343 186185 1728 1789 245 -7.1743083000183 4 38.511121749878 472.88571419002
59286	21242165 7708 180319 186185 1727.75 1789 246 0 15.64999961853 2186.9550622702 30959.303951052
59285	21249873 9132 180294 186185 1727.5 1789 247 483.14999389648 734.23628234863 127789.72497559 67239739.427517
59284	21259005 9117 180294 186185 1727.5 1789 247 184.17810058594 486.85000610352 104755.14889526 46501310.263293
vector 59426  IntersectionExampleScenario.node[582].veinsmobility  speed  ETV
59302	21268201 7149 181049 186210 1736.75 1789.25 211 0.973 11.648172402475 578.52051423768 2952.2593829315
59301	21275350 6785 181049 186210 1736.75 1789.25 211 -6.7527532577515 4 37.832105636597 467.49807762372
59300	21282135 6979 181026 186210 1736.5 1789.25 212 0 15.64999961853 2206.0872974396 31067.27251008
59299	21289114 7882 181003 186210 1736.25 1789.25 213 486.85000610352 486.85000610352 103699.05130005 50485883.758357
59298	21296996 7866 181003 186210 1736.25 1789.25 213 238.25756835938 785.82187652588 109870.80226898 60826318.331709
vector 59427  IntersectionExampleScenario.node[582].veinsmobility  acceleration  ETV
vector 59428  IntersectionExampleScenario.node[582].veinsmobility  co2emission  ETV
59295	21305033 7558 180927 186326 1735.25 1790.5 222 0.973 11.810082123732 585.90371877075 3036.4073722239
59294	21312591 7880 180927 186326 1735.25 1790.5 222 -3.8692831993103 2.5 39.869146347046 349.82331662915
59293	21320471 7933 180908 186326 1735 1790.5 223 0 15.875 2179.0645128544 29392.502193037
59292	21328404 8281 180888 186326 1734.75 1790.5 224 238.28631591797 483.14999389648 100311.79299927 45927835.063663
59291	21336685 8261 180888 186326 1734.75 1790.5 224 184.17810058594 483.25241088867 92820.530181885 40359628.010851
59323	21344946 7131 181391 186349 1740.25 1790.75 203 0.973 11.648172402475 587.6287365767 3035.7917057425
59322	21352077 7028 181391 186349 1740.25 1790.75 203 -4.5 2.5000009536743 40.038900375366 441.13941436973
59321	21359105 7296 181366 186349 1740 1790.75 204 0 15.786817550659 2229.6435976755 31500.744618347
59320	21366401 7580 181340 186349 1739.75 1790.75 205 486.85000610352 734.88310241699 107893.79393005 57798743.487888
59319	21373981 7569 181340 186349 1739.75 1790.75 205 486.83807373047 795.46562957764 115130.49687195 66692374.297055
59316	21381550 7460 181122 186478 1737.5 1792.25 220 0.973 11.810082123732 609.05947581678 3123.1497294292
59315	21389010 7650 181122 186478 1737.5 1792.25 220 -4.5 2.5 41.396924972534 401.77326977181
59314	21396660 7811 181097 186478 1737.25 1792.25 221 0 16.034492492676 2244.2013657689 30058.575574956
59313	21404471 8212 181072 186478 1737 1792.25 222 239.12329101562 483.14999389648 99578.972839355 45644210.720413
59312	21412683 8180 181072 186478 1737 1792.25 222 167.29217529297 483.14999389648 89697.232513428 38330901.989307
vector 59431  IntersectionExampleScenario.node[583].veinsmobility  posx  ETV
vector 59432  IntersectionExampleScenario.node[583].veinsmobility  posy  ETV
vector 59433  IntersectionExampleScenario.node[583].veinsmobility  speed  ETV
vector 59434  IntersectionExampleScenario.node[583].veinsmobility  acceleration  ETV
vector 59435  IntersectionExampleScenario.node[583].veinsmobility  co2emission  ETV
59330	21421269 7362 181611 186815 1742.5 1796.25 216 0.973 11.36141391502 556.03025184191 2733.2051791134
59329	21428631 7596 181611 186815 1742.5 1796.25 216 -4.4064388275146 2.5 36.813589096069 364.15327436608
59328	21436227 7685 181586 186815 1742.25 1796.25 217 0 15.25 2212.8903537393 28196.856561897
59327	21443912 8056 181561 186815 1742 1796.25 218 236.78204345703 483.14999389648 96935.452911377 44154544.275113
59326	21451968 8031 181561 186815 1742 1796.25 218 177.22186279297 483.16333007812 88421.627593994 37835385.291266
59344	21459999 6718 182130 186857 1748.5 1796.75 194 0.973 11.90022389248 591.07169939936 3183.5016278067
59343	21466717 6553 182130 186857 1748.5 1796.75 194 -4.5 2.5 42.075933456421 455.12500118699
59342	21473270 6895 182107 186857 1748.25 1796.75 195 0 16.219104766846 2206.494347319 30536.134758482
59341	21480165 7245 182084 186857 1748 1796.75 196 483.14999389648 732.01496887207 102580.55947876 54674803.381823
59340	21487410 7222 182084 186857 1748 1796.75 196 184.17810058594 486.86212158203 79508.231170654 34054137.959981
vector 59438  IntersectionExampleScenario.node[584].veinsmobility  posx  ETV
vector 59439  IntersectionExampleScenario.node[584].veinsmobility  posy  ETV
vector 59440  IntersectionExampleScenario.node[584].veinsmobility  speed  ETV
59358	21494867 5589 183163 186901 1759 1797.25 154 0.973 11.648172402475 472.37063277033 2468.6221642102
59357	21500456 5116 183163 186901 1759 1797.25 154 -3.3639106750488 2.5 38.511121749878 193.7515100159
59356	21505572 5500 183138 186901 1758.75 1797.25 155 5.6500000953674 15.64999961853 2221.4249238968 32483.241731561
59355	21511072 5772 183112 186901 1758.5 1797.25 156 486.85000610352 486.85000610352 75948.600952148 36975576.837107
59354	21516844 5740 183112 186901 1758.5 1797.25 156 235.65411376953 785.82187652588 81264.277168274 46487544.880767
vector 59441  IntersectionExampleScenario.node[584].veinsmobility  acceleration  ETV
vector 59442  IntersectionExampleScenario.node[584].veinsmobility  co2emission  ETV
vector 59445  IntersectionExampleScenario.node[585].veinsmobility  posx  ETV
vector 59446  IntersectionExampleScenario.node[585].veinsmobility  posy  ETV
vector 59447  IntersectionExampleScenario.node[585].veinsmobility  speed  ETV
59309	21522990 8125 181049 187157 1736.75 1800 254 0.973 11.648172402475 597.62655498246 2901.6818360756
59308	21531115 7395 181049 187157 1736.75 1800 254 -15.36153793335 4 37.66241645813 694.79094038713
59307	21538510 7585 181026 187157 1736.5 1800 255 0 15.64999961853 1873.49563694 26172.079014393
59306	21546095 9460 181003 187157 1736.25 1800 256 483.14999389648 785.82187652588 139692.04132843 78295058.980022
59305	21555555 9467 181003 187157 1736.25 1800 256 483.14999389648 651.45639038086 127600.85816956 63978766.949788
59351	21565022 6035 182387 187157 1751.25 1800 196 0.973 11.200708441096 362.51957131716 1418.2286361576
59350	21571057 5569 182387 187157 1751.25 1800 196 -7.1881794929504 2.5 -22.60000038147 309.61243211482
59349	21576626 5831 182362 187157 1751 1800 197 0 15.02499961853 1197.9030367136 16273.481712325
59348	21582457 7301 182337 187157 1750.75 1800 198 171.40313720703 471.60000610352 79074.843383789 33575771.35592
59347	21589758 7325 182337 187157 1750.75 1800 198 486.85000610352 486.85000610352 96396.301208496 46930539.831713
59365	21597083 4749 183615 187157 1763.75 1800 146 0.973 12.553400930962 328.1284176639 1752.0434275573
59364	21601832 5351 183615 187157 1763.75 1800 146 -3.8439748287201 2.5 -22.520091347396 219.21788304494
59363	21607183 5402 183590 187157 1763.5 1800 147 0 16.89999961853 1121.6053754687 14792.381600395
59362	21612585 5448 183565 187157 1763.25 1800 148 184.17810058594 464.87387084961 56411.231414795 22847546.810931
59361	21618033 5476 183565 187157 1763.25 1800 148 486.85000610352 486.85000610352 72053.80090332 35079393.409563
59372	21623509 4924 183694 187157 1764.5 1800 143 0.973 12.099024792222 495.5284460833 3166.4707991206
59371	21628433 4906 183694 187157 1764.5 1800 143 -2.7869110107422 2.5 41.397130966187 311.40048986474
59370	21633339 5087 183667 187157 1764.25 1800 144 4.5506000518799 16.367733001709 1816.6680440903 24976.436927669
59369	21638426 5350 183640 187157 1764 1800 145 337.46630859375 785.82187652588 82003.631355286 48679313.16942
59368	21643776 5363 183640 187157 1764 1800 145 483.14999389648 483.14999389648 70056.74911499 33847917.907315
59379	21649139 4112 184130 187157 1768.5 1800 127 0.97223939240464 11.648172402475 301.48665663041 1478.2872207652
59378	21653251 3975 184130 187157 1768.5 1800 127 -7.1630640029907 2.5 -22.60000038147 315.45572319872
59377	21657226 4161 184101 187157 1768.25 1800 128 0 15.64999961853 1147.0843374729 16135.147662775
59376	21661387 4771 184072 187157 1768 1800 129 486.85000610352 486.85000610352 62803.650787354 30575957.769146
59375	21666158 4762 184072 187157 1768 1800 129 498.39999389648 785.82187652588 77089.242195129 47411257.460909
59386	21670920 4058 184471 187157 1771.5 1800 115 0.97223939240464 11.648172402475 423.51785699422 2873.5895876922
59385	21674978 3862 184471 187157 1771.5 1800 115 -3.351806640625 2.5 38.693681716919 256.32350604075
59384	21678840 4063 184442 187157 1771.25 1800 116 5.6500000953674 15.64999961853 1580.6820735931 22124.460225571
59383	21682903 4300 184413 187157 1771 1800 117 395.87585449219 785.82187652588 69873.673286438 43334223.358956
59382	21687203 4327 184413 187157 1771 1800 117 483.14999389648 483.14999389648 56528.549285889 27311768.242454
59393	21691530 3490 184566 187157 1772.25 1800 112 0.973 12.553400930962 292.03759330986 1763.5065524318
59392	21695020 3908 184566 187157 1772.25 1800 112 -2.2451362609863 2.5 -18.322330474854 204.1186402227
59391	21698928 4159 184533 187157 1772 1800 113 1.0694174766541 16.89999961853 1087.2592369318 13720.252131783
59390	21703087 4182 184500 187157 1771.75 1800 114 184.17810058594 456.09790039062 40061.572540283 15036822.128714
59389	21707269 4217 184500 187157 1771.75 1800 114 486.85000610352 486.85000610352 55500.900695801 27020613.842501
59400	21711486 3705 184566 187157 1772.25 1800 112 0.973 11.200708441096 285.9480264653 1416.3758695155
59399	21715191 3643 184566 187157 1772.25 1800 112 -7.9437937736511 2.5 -22.60000038147 327.34855648215
59398	21718834 3827 184533 187157 1772 1800 113 0 15.325512886047 1146.2794433832 15795.986976543
59397	21722661 4217 184500 187157 1771.75 1800 114 483.14999389648 483.14999389648 55079.099304199 26611466.492648
59396	21726878 4190 184500 187157 1771.75 1800 114 184.17810058594 471.60000610352 40741.400512695 15724917.505684
59407	21731068 2783 185317 187157 1779.5 1800 83 0.973 11.648172402475 241.613279516 1381.9331731671
59406	21733851 3025 185317 187157 1779.5 1800 83 -2.0975685119629 2.5 -2.2182312011719 166.06479546698
59405	21736876 3090 185293 187157 1779.25 1800 84 5.0954422950745 15.64999961853 1035.3303670883 13792.218700456
59404	21739966 3143 185268 187157 1779 1800 85 486.85000610352 486.85000610352 41382.250518799 20146948.917654
59403	21743109 3134 185268 187157 1779 1800 85 528.68798828125 785.82187652588 55508.695198059 36856153.417286
59414	21746243 2668 185436 187157 1780.75 1800 78 0.973 11.200708441096 227.44400000823 1244.0803000177
59413	21748911 2859 185436 187157 1780.75 1800 78 -2.1149864196777 2.5 4.6117687225342 146.85528852399
59412	21751770 2902 185411 187157 1780.5 1800 79 5.6500000953674 15.02499961853 996.54603624344 13172.636505133
59411	21754672 2960 185386 187157 1780.25 1800 80 483.14999389648 483.14999389648 38651.999511719 18674713.328174
59410	21757632 2938 185386 187157 1780.25 1800 80 184.17810058594 431.1181640625 24511.564422607 8014119.264508
59421	21760570 2355 185702 187157 1783.75 1800 66 0.973 11.200708441096 225.95936342632 1278.297922381
59420	21762925 2356 185702 187157 1783.75 1800 66 -4.5 2.5 12.899354934692 188.47977002077
59419	21765281 2459 185679 187157 1783.5 1800 67 5.6500000953674 15.307956695557 914.93231201172 12964.274595388
59418	21767740 2516 185656 187157 1783.25 1800 68 483.14999389648 483.14999389648 32854.199584961 15873506.328948
59417	21770256 2493 185656 187157 1783.25 1800 68 171.40313720703 397.13095092773 18794.877166748 5540410.6857837
59428	21772749 1583 186234 187157 1789.5 1800 43 1.3699353896297 11.200708441096 179.08794404395 1168.0971591552
59427	21774332 1521 186234 187157 1789.5 1800 43 -0.21404266357422 2.5 36.644102096558 93.854707830065
59426	21775853 1614 186210 187157 1789.25 1800 44 5.6500000953674 15.02499961853 580.74874019623 8003.9140668633
59425	21777467 1663 186185 187157 1789 1800 45 486.85000610352 486.85000610352 21908.250274658 10666031.779935
59424	21779130 1661 186185 187157 1789 1800 45 645.57232666016 785.82187652588 32587.721580505 23687040.297071
59435	21780791 771 186710 187157 1795 1800 21 3.2175101706179 11.200708441096 142.06833313277 1116.3295552704
59434	21781562 612 186710 187157 1795 1800 21 0.28776931762695 2.5 39.239740371704 94.254451835575
59433	21782174 802 186689 187157 1794.75 1800 22 5.6500000953674 15.459935188293 257.07568073273 3243.4651921371
59432	21782976 850 186667 187157 1794.5 1800 23 486.85000610352 486.85000610352 11197.550140381 5451527.3541888
59431	21783826 850 186667 187157 1794.5 1800 23 726.68606567383 785.82187652588 17528.752357483 13366964.863973
59442	21784676 403 186924 187157 1797.5 1800 11 5.2162187258585 9.442030466751 80.452460202964 608.047069496
59441	21785079 286 186924 187157 1797.5 1800 11 2.4999980926514 2.5 27.499998092651 68.74999046326
59440	21785365 439 186901 187157 1797.25 1800 12 5.6500000953674 12.52499961853 109.04999732971 1046.8511919308
59439	21785804 467 186878 187157 1797 1800 13 184.17810058594 207.45001220703 2516.7592773438 487981.01338524
59438	21786271 479 186878 187157 1797 1800 13 486.85000610352 486.85000610352 6329.0500793457 3081298.0697589
59447	21786750 35 187157 187157 1800 1800 1 5.6500000953674 5.6500000953674 5.6500000953674 31.922501077652
59446	21786785 73 187131 187157 1799.75 1800 2 785.82187652588 785.82187652588 1571.6437530518 1235032.0432533
59445	21786858 73 187131 187157 1799.75 1800 2 483.14999389648 483.14999389648 966.29998779297 466867.83320435
55346	21786931 639 0 187156 0 1800 31 0 24 538 10056
55347	21787570 655 0 187156 0 1800 31 0 210 3300 473300
