version 2
run nodebug-5-20200605-23:57:25-5072
attr configname nodebug
attr datetime 20200605-23:57:25
attr experiment nodebug
attr inifile omnetpp.ini
attr iterationvars ""
attr iterationvars2 $repetition=5
attr measurement ""
attr network "\"org.car2x.veins.modules.application.ExtTraCIScenarioManagerLaunchd.IntersectionExampleScenario\""
attr processid 5072
attr repetition 5
attr replication #5
attr resultdir results
attr runnumber 5
attr seedset 5
param **.coreDebug false
param **.debug false
param *.**.nic.mac1609_4.bitrate 18Mbps
param *.**.nic.mac1609_4.txPower 20mW
param *.**.nic.mac1609_4.useServiceChannel false
param *.**.nic.phy80211p.analogueModels "xmldoc(\"config.xml\")"
param *.**.nic.phy80211p.decider "xmldoc(\"config.xml\")"
param *.**.nic.phy80211p.sensitivity -89dBm
param *.**.nic.phy80211p.thermalNoise -110dBm
param *.**.nic.phy80211p.usePropagationDelay true
param *.**.nic.phy80211p.useThermalNoise true
param *.annotations.draw false
param *.connectionManager.alpha 2.0
param *.connectionManager.carrierFrequency "5.890e9 Hz"
param *.connectionManager.pMax 20mW
param *.connectionManager.sat -89dBm
param *.connectionManager.sendDirect true
param *.manager.autoShutdown true
param *.manager.host "\"localhost\""
param *.manager.launchConfig "xmldoc(\"paramics.launchd.xml\")"
param *.manager.margin 25
param *.manager.moduleDisplayString "\"\""
param *.manager.moduleName "\"node\""
param *.manager.moduleType "\"org.car2x.veins.nodes.Car\""
param *.manager.port 9999
param *.manager.updateInterval 250ms
param *.node[*0].veinsmobility.accidentCount 0
param *.node[*0].veinsmobility.accidentDuration 30s
param *.node[*0].veinsmobility.accidentStart 75s
param *.node[*].appl.LiderSelectZoneRadio 55.0
param *.node[*].appl.ShareDataZoneRadio 110.0
param *.node[*].appl.TiempoSemaforo 30.0
param *.node[*].appl.beaconInterval 1s
param *.node[*].appl.beaconPriority 3
param *.node[*].appl.dataOnSch false
param *.node[*].appl.dataPriority 2
param *.node[*].appl.debug false
param *.node[*].appl.headerLength "256 bit"
param *.node[*].appl.maxOffset 0.005s
param *.node[*].appl.sendBeacons false
param *.node[*].appl.sendData true
param *.node[*].applType "\"Dummy\""
param *.node[*].mobilityType "\"TraCIMobility\""
param *.node[*].mobilityType.debug true
param *.node[*].veinsmobility.x 0
param *.node[*].veinsmobility.y 0
param *.node[*].veinsmobility.z 1.895
param *.node[*].veinsmobilityType "\"org.car2x.veins.modules.mobility.traci.TraCIMobility\""
param *.node[*].veinsmobilityType.debug true
param *.playgroundSizeX 8500m
param *.playgroundSizeY 8500m
param *.playgroundSizeZ 50m
param *.world.use2D false
param *.world.useTorus false

scalar IntersectionExampleScenario.node[0].appl 	VehicleRemoved 	0
scalar IntersectionExampleScenario.node[0].appl 	ArrivedAtDest 	1
scalar IntersectionExampleScenario.node[0].appl 	IntersectionEnterTime 	2.5
scalar IntersectionExampleScenario.node[0].appl 	IntersectionExitTime 	26.114826363046
scalar IntersectionExampleScenario.node[0].appl 	NumberOfCollisions 	0
scalar IntersectionExampleScenario.node[0].nic.phy80211p 	busyTime 	0
scalar IntersectionExampleScenario.node[0].nic.mac1609_4 	ReceivedUnicastPackets 	0
scalar IntersectionExampleScenario.node[0].nic.mac1609_4 	ReceivedBroadcasts 	0
scalar IntersectionExampleScenario.node[0].nic.mac1609_4 	SentPackets 	0
scalar IntersectionExampleScenario.node[0].nic.mac1609_4 	SNIRLostPackets 	0
scalar IntersectionExampleScenario.node[0].nic.mac1609_4 	RXTXLostPackets 	0
scalar IntersectionExampleScenario.node[0].nic.mac1609_4 	TotalLostPackets 	0
scalar IntersectionExampleScenario.node[0].nic.mac1609_4 	DroppedPacketsInMac 	0
scalar IntersectionExampleScenario.node[0].nic.mac1609_4 	TooLittleTime 	0
scalar IntersectionExampleScenario.node[0].nic.mac1609_4 	TimesIntoBackoff 	0
scalar IntersectionExampleScenario.node[0].nic.mac1609_4 	SlotsBackoff 	0
scalar IntersectionExampleScenario.node[0].nic.mac1609_4 	NumInternalContention 	0
scalar IntersectionExampleScenario.node[0].nic.mac1609_4 	totalBusyTime 	0
scalar IntersectionExampleScenario.node[0].veinsmobility 	startTime 	2.5
scalar IntersectionExampleScenario.node[0].veinsmobility 	totalTime 	40.25
scalar IntersectionExampleScenario.node[0].veinsmobility 	stopTime 	43
scalar IntersectionExampleScenario.node[0].veinsmobility 	minSpeed 	5.6500000953674
scalar IntersectionExampleScenario.node[0].veinsmobility 	maxSpeed 	15.64999961853
scalar IntersectionExampleScenario.node[0].veinsmobility 	totalDistance 	545.75284924349
scalar IntersectionExampleScenario.node[0].veinsmobility 	totalCO2Emission 	126.65543267184
scalar IntersectionExampleScenario.node[2].appl 	VehicleRemoved 	0
scalar IntersectionExampleScenario.node[2].appl 	ArrivedAtDest 	1
scalar IntersectionExampleScenario.node[2].appl 	IntersectionEnterTime 	3
scalar IntersectionExampleScenario.node[2].appl 	IntersectionExitTime 	26.342305036727
scalar IntersectionExampleScenario.node[2].appl 	NumberOfCollisions 	0
scalar IntersectionExampleScenario.node[2].nic.phy80211p 	busyTime 	0
scalar IntersectionExampleScenario.node[2].nic.mac1609_4 	ReceivedUnicastPackets 	0
scalar IntersectionExampleScenario.node[2].nic.mac1609_4 	ReceivedBroadcasts 	0
scalar IntersectionExampleScenario.node[2].nic.mac1609_4 	SentPackets 	0
scalar IntersectionExampleScenario.node[2].nic.mac1609_4 	SNIRLostPackets 	0
scalar IntersectionExampleScenario.node[2].nic.mac1609_4 	RXTXLostPackets 	0
scalar IntersectionExampleScenario.node[2].nic.mac1609_4 	TotalLostPackets 	0
scalar IntersectionExampleScenario.node[2].nic.mac1609_4 	DroppedPacketsInMac 	0
scalar IntersectionExampleScenario.node[2].nic.mac1609_4 	TooLittleTime 	0
scalar IntersectionExampleScenario.node[2].nic.mac1609_4 	TimesIntoBackoff 	0
scalar IntersectionExampleScenario.node[2].nic.mac1609_4 	SlotsBackoff 	0
scalar IntersectionExampleScenario.node[2].nic.mac1609_4 	NumInternalContention 	0
scalar IntersectionExampleScenario.node[2].nic.mac1609_4 	totalBusyTime 	0
scalar IntersectionExampleScenario.node[2].veinsmobility 	startTime 	3
scalar IntersectionExampleScenario.node[2].veinsmobility 	totalTime 	39.75
scalar IntersectionExampleScenario.node[2].veinsmobility 	stopTime 	43
scalar IntersectionExampleScenario.node[2].veinsmobility 	minSpeed 	5.6500000953674
scalar IntersectionExampleScenario.node[2].veinsmobility 	maxSpeed 	15.875
scalar IntersectionExampleScenario.node[2].veinsmobility 	totalDistance 	545.83991805212
scalar IntersectionExampleScenario.node[2].veinsmobility 	totalCO2Emission 	128.35904976917
scalar IntersectionExampleScenario.node[1].appl 	VehicleRemoved 	0
scalar IntersectionExampleScenario.node[1].appl 	ArrivedAtDest 	1
scalar IntersectionExampleScenario.node[1].appl 	IntersectionEnterTime 	3
scalar IntersectionExampleScenario.node[1].appl 	IntersectionExitTime 	33.564802248904
scalar IntersectionExampleScenario.node[1].appl 	NumberOfCollisions 	0
scalar IntersectionExampleScenario.node[1].nic.phy80211p 	busyTime 	0
scalar IntersectionExampleScenario.node[1].nic.mac1609_4 	ReceivedUnicastPackets 	0
scalar IntersectionExampleScenario.node[1].nic.mac1609_4 	ReceivedBroadcasts 	0
scalar IntersectionExampleScenario.node[1].nic.mac1609_4 	SentPackets 	0
scalar IntersectionExampleScenario.node[1].nic.mac1609_4 	SNIRLostPackets 	0
scalar IntersectionExampleScenario.node[1].nic.mac1609_4 	RXTXLostPackets 	0
scalar IntersectionExampleScenario.node[1].nic.mac1609_4 	TotalLostPackets 	0
scalar IntersectionExampleScenario.node[1].nic.mac1609_4 	DroppedPacketsInMac 	0
scalar IntersectionExampleScenario.node[1].nic.mac1609_4 	TooLittleTime 	0
scalar IntersectionExampleScenario.node[1].nic.mac1609_4 	TimesIntoBackoff 	0
scalar IntersectionExampleScenario.node[1].nic.mac1609_4 	SlotsBackoff 	0
scalar IntersectionExampleScenario.node[1].nic.mac1609_4 	NumInternalContention 	0
scalar IntersectionExampleScenario.node[1].nic.mac1609_4 	totalBusyTime 	0
scalar IntersectionExampleScenario.node[1].veinsmobility 	startTime 	3
scalar IntersectionExampleScenario.node[1].veinsmobility 	totalTime 	47.5
scalar IntersectionExampleScenario.node[1].veinsmobility 	stopTime 	50.75
scalar IntersectionExampleScenario.node[1].veinsmobility 	minSpeed 	0
scalar IntersectionExampleScenario.node[1].veinsmobility 	maxSpeed 	15.25
scalar IntersectionExampleScenario.node[1].veinsmobility 	totalDistance 	543.38601590545
scalar IntersectionExampleScenario.node[1].veinsmobility 	totalCO2Emission 	136.52976551698
scalar IntersectionExampleScenario.node[4].appl 	VehicleRemoved 	0
scalar IntersectionExampleScenario.node[4].appl 	ArrivedAtDest 	1
scalar IntersectionExampleScenario.node[4].appl 	IntersectionEnterTime 	18.25
scalar IntersectionExampleScenario.node[4].appl 	IntersectionExitTime 	48.572479726077
scalar IntersectionExampleScenario.node[4].appl 	NumberOfCollisions 	0
scalar IntersectionExampleScenario.node[4].nic.phy80211p 	busyTime 	0
scalar IntersectionExampleScenario.node[4].nic.mac1609_4 	ReceivedUnicastPackets 	0
scalar IntersectionExampleScenario.node[4].nic.mac1609_4 	ReceivedBroadcasts 	0
scalar IntersectionExampleScenario.node[4].nic.mac1609_4 	SentPackets 	0
scalar IntersectionExampleScenario.node[4].nic.mac1609_4 	SNIRLostPackets 	0
scalar IntersectionExampleScenario.node[4].nic.mac1609_4 	RXTXLostPackets 	0
scalar IntersectionExampleScenario.node[4].nic.mac1609_4 	TotalLostPackets 	0
scalar IntersectionExampleScenario.node[4].nic.mac1609_4 	DroppedPacketsInMac 	0
scalar IntersectionExampleScenario.node[4].nic.mac1609_4 	TooLittleTime 	0
scalar IntersectionExampleScenario.node[4].nic.mac1609_4 	TimesIntoBackoff 	0
scalar IntersectionExampleScenario.node[4].nic.mac1609_4 	SlotsBackoff 	0
scalar IntersectionExampleScenario.node[4].nic.mac1609_4 	NumInternalContention 	0
scalar IntersectionExampleScenario.node[4].nic.mac1609_4 	totalBusyTime 	0
scalar IntersectionExampleScenario.node[4].veinsmobility 	startTime 	18.25
scalar IntersectionExampleScenario.node[4].veinsmobility 	totalTime 	47.25
scalar IntersectionExampleScenario.node[4].veinsmobility 	stopTime 	65.75
scalar IntersectionExampleScenario.node[4].veinsmobility 	minSpeed 	0
scalar IntersectionExampleScenario.node[4].veinsmobility 	maxSpeed 	15.25
scalar IntersectionExampleScenario.node[4].veinsmobility 	totalDistance 	543.924857153
scalar IntersectionExampleScenario.node[4].veinsmobility 	totalCO2Emission 	136.38310192622
scalar IntersectionExampleScenario.node[5].appl 	VehicleRemoved 	0
scalar IntersectionExampleScenario.node[5].appl 	ArrivedAtDest 	1
scalar IntersectionExampleScenario.node[5].appl 	IntersectionEnterTime 	21.5
scalar IntersectionExampleScenario.node[5].appl 	IntersectionExitTime 	50.281698525097
scalar IntersectionExampleScenario.node[5].appl 	NumberOfCollisions 	0
scalar IntersectionExampleScenario.node[5].nic.phy80211p 	busyTime 	0
scalar IntersectionExampleScenario.node[5].nic.mac1609_4 	ReceivedUnicastPackets 	0
scalar IntersectionExampleScenario.node[5].nic.mac1609_4 	ReceivedBroadcasts 	0
scalar IntersectionExampleScenario.node[5].nic.mac1609_4 	SentPackets 	0
scalar IntersectionExampleScenario.node[5].nic.mac1609_4 	SNIRLostPackets 	0
scalar IntersectionExampleScenario.node[5].nic.mac1609_4 	RXTXLostPackets 	0
scalar IntersectionExampleScenario.node[5].nic.mac1609_4 	TotalLostPackets 	0
scalar IntersectionExampleScenario.node[5].nic.mac1609_4 	DroppedPacketsInMac 	0
scalar IntersectionExampleScenario.node[5].nic.mac1609_4 	TooLittleTime 	0
scalar IntersectionExampleScenario.node[5].nic.mac1609_4 	TimesIntoBackoff 	0
scalar IntersectionExampleScenario.node[5].nic.mac1609_4 	SlotsBackoff 	0
scalar IntersectionExampleScenario.node[5].nic.mac1609_4 	NumInternalContention 	0
scalar IntersectionExampleScenario.node[5].nic.mac1609_4 	totalBusyTime 	0
scalar IntersectionExampleScenario.node[5].veinsmobility 	startTime 	21.5
scalar IntersectionExampleScenario.node[5].veinsmobility 	totalTime 	45
scalar IntersectionExampleScenario.node[5].veinsmobility 	stopTime 	66.75
scalar IntersectionExampleScenario.node[5].veinsmobility 	minSpeed 	1.5399610996246
scalar IntersectionExampleScenario.node[5].veinsmobility 	maxSpeed 	15.5
scalar IntersectionExampleScenario.node[5].veinsmobility 	totalDistance 	564.62245178223
scalar IntersectionExampleScenario.node[5].veinsmobility 	totalCO2Emission 	134.74068520309
scalar IntersectionExampleScenario.node[8].appl 	VehicleRemoved 	0
scalar IntersectionExampleScenario.node[8].appl 	ArrivedAtDest 	1
scalar IntersectionExampleScenario.node[8].appl 	IntersectionEnterTime 	36
scalar IntersectionExampleScenario.node[8].appl 	IntersectionExitTime 	62.572207857796
scalar IntersectionExampleScenario.node[8].appl 	NumberOfCollisions 	0
scalar IntersectionExampleScenario.node[8].nic.phy80211p 	busyTime 	0
scalar IntersectionExampleScenario.node[8].nic.mac1609_4 	ReceivedUnicastPackets 	0
scalar IntersectionExampleScenario.node[8].nic.mac1609_4 	ReceivedBroadcasts 	0
scalar IntersectionExampleScenario.node[8].nic.mac1609_4 	SentPackets 	0
scalar IntersectionExampleScenario.node[8].nic.mac1609_4 	SNIRLostPackets 	0
scalar IntersectionExampleScenario.node[8].nic.mac1609_4 	RXTXLostPackets 	0
scalar IntersectionExampleScenario.node[8].nic.mac1609_4 	TotalLostPackets 	0
scalar IntersectionExampleScenario.node[8].nic.mac1609_4 	DroppedPacketsInMac 	0
scalar IntersectionExampleScenario.node[8].nic.mac1609_4 	TooLittleTime 	0
scalar IntersectionExampleScenario.node[8].nic.mac1609_4 	TimesIntoBackoff 	0
scalar IntersectionExampleScenario.node[8].nic.mac1609_4 	SlotsBackoff 	0
scalar IntersectionExampleScenario.node[8].nic.mac1609_4 	NumInternalContention 	0
scalar IntersectionExampleScenario.node[8].nic.mac1609_4 	totalBusyTime 	0
scalar IntersectionExampleScenario.node[8].veinsmobility 	startTime 	36
scalar IntersectionExampleScenario.node[8].veinsmobility 	totalTime 	42.5
scalar IntersectionExampleScenario.node[8].veinsmobility 	stopTime 	78.75
scalar IntersectionExampleScenario.node[8].veinsmobility 	minSpeed 	0
scalar IntersectionExampleScenario.node[8].veinsmobility 	maxSpeed 	16.5
scalar IntersectionExampleScenario.node[8].veinsmobility 	totalDistance 	543.05309201629
scalar IntersectionExampleScenario.node[8].veinsmobility 	totalCO2Emission 	141.01796654847
scalar IntersectionExampleScenario.node[3].appl 	VehicleRemoved 	0
scalar IntersectionExampleScenario.node[3].appl 	ArrivedAtDest 	1
scalar IntersectionExampleScenario.node[3].appl 	IntersectionEnterTime 	14.75
scalar IntersectionExampleScenario.node[3].appl 	IntersectionExitTime 	62.534260808141
scalar IntersectionExampleScenario.node[3].appl 	NumberOfCollisions 	0
scalar IntersectionExampleScenario.node[3].nic.phy80211p 	busyTime 	0
scalar IntersectionExampleScenario.node[3].nic.mac1609_4 	ReceivedUnicastPackets 	0
scalar IntersectionExampleScenario.node[3].nic.mac1609_4 	ReceivedBroadcasts 	0
scalar IntersectionExampleScenario.node[3].nic.mac1609_4 	SentPackets 	0
scalar IntersectionExampleScenario.node[3].nic.mac1609_4 	SNIRLostPackets 	0
scalar IntersectionExampleScenario.node[3].nic.mac1609_4 	RXTXLostPackets 	0
scalar IntersectionExampleScenario.node[3].nic.mac1609_4 	TotalLostPackets 	0
scalar IntersectionExampleScenario.node[3].nic.mac1609_4 	DroppedPacketsInMac 	0
scalar IntersectionExampleScenario.node[3].nic.mac1609_4 	TooLittleTime 	0
scalar IntersectionExampleScenario.node[3].nic.mac1609_4 	TimesIntoBackoff 	0
scalar IntersectionExampleScenario.node[3].nic.mac1609_4 	SlotsBackoff 	0
scalar IntersectionExampleScenario.node[3].nic.mac1609_4 	NumInternalContention 	0
scalar IntersectionExampleScenario.node[3].nic.mac1609_4 	totalBusyTime 	0
scalar IntersectionExampleScenario.node[3].veinsmobility 	startTime 	14.75
scalar IntersectionExampleScenario.node[3].veinsmobility 	totalTime 	64.5
scalar IntersectionExampleScenario.node[3].veinsmobility 	stopTime 	79.5
scalar IntersectionExampleScenario.node[3].veinsmobility 	minSpeed 	0
scalar IntersectionExampleScenario.node[3].veinsmobility 	maxSpeed 	15.64999961853
scalar IntersectionExampleScenario.node[3].veinsmobility 	totalDistance 	543.37078763396
scalar IntersectionExampleScenario.node[3].veinsmobility 	totalCO2Emission 	155.44288815153
scalar IntersectionExampleScenario.node[10].appl 	VehicleRemoved 	0
scalar IntersectionExampleScenario.node[10].appl 	ArrivedAtDest 	1
scalar IntersectionExampleScenario.node[10].appl 	IntersectionEnterTime 	39.5
scalar IntersectionExampleScenario.node[10].appl 	IntersectionExitTime 	65.024970675498
scalar IntersectionExampleScenario.node[10].appl 	NumberOfCollisions 	0
scalar IntersectionExampleScenario.node[10].nic.phy80211p 	busyTime 	0
scalar IntersectionExampleScenario.node[10].nic.mac1609_4 	ReceivedUnicastPackets 	0
scalar IntersectionExampleScenario.node[10].nic.mac1609_4 	ReceivedBroadcasts 	0
scalar IntersectionExampleScenario.node[10].nic.mac1609_4 	SentPackets 	0
scalar IntersectionExampleScenario.node[10].nic.mac1609_4 	SNIRLostPackets 	0
scalar IntersectionExampleScenario.node[10].nic.mac1609_4 	RXTXLostPackets 	0
scalar IntersectionExampleScenario.node[10].nic.mac1609_4 	TotalLostPackets 	0
scalar IntersectionExampleScenario.node[10].nic.mac1609_4 	DroppedPacketsInMac 	0
scalar IntersectionExampleScenario.node[10].nic.mac1609_4 	TooLittleTime 	0
scalar IntersectionExampleScenario.node[10].nic.mac1609_4 	TimesIntoBackoff 	0
scalar IntersectionExampleScenario.node[10].nic.mac1609_4 	SlotsBackoff 	0
scalar IntersectionExampleScenario.node[10].nic.mac1609_4 	NumInternalContention 	0
scalar IntersectionExampleScenario.node[10].nic.mac1609_4 	totalBusyTime 	0
scalar IntersectionExampleScenario.node[10].veinsmobility 	startTime 	39.5
scalar IntersectionExampleScenario.node[10].veinsmobility 	totalTime 	42.5
scalar IntersectionExampleScenario.node[10].veinsmobility 	stopTime 	82.25
scalar IntersectionExampleScenario.node[10].veinsmobility 	minSpeed 	5.6500000953674
scalar IntersectionExampleScenario.node[10].veinsmobility 	maxSpeed 	15.02499961853
scalar IntersectionExampleScenario.node[10].veinsmobility 	totalDistance 	561.98444738062
scalar IntersectionExampleScenario.node[10].veinsmobility 	totalCO2Emission 	130.22338773446
scalar IntersectionExampleScenario.node[7].appl 	VehicleRemoved 	0
scalar IntersectionExampleScenario.node[7].appl 	ArrivedAtDest 	1
scalar IntersectionExampleScenario.node[7].appl 	IntersectionEnterTime 	30.5
scalar IntersectionExampleScenario.node[7].appl 	IntersectionExitTime 	67.275569443213
scalar IntersectionExampleScenario.node[7].appl 	NumberOfCollisions 	0
scalar IntersectionExampleScenario.node[7].nic.phy80211p 	busyTime 	0
scalar IntersectionExampleScenario.node[7].nic.mac1609_4 	ReceivedUnicastPackets 	0
scalar IntersectionExampleScenario.node[7].nic.mac1609_4 	ReceivedBroadcasts 	0
scalar IntersectionExampleScenario.node[7].nic.mac1609_4 	SentPackets 	0
scalar IntersectionExampleScenario.node[7].nic.mac1609_4 	SNIRLostPackets 	0
scalar IntersectionExampleScenario.node[7].nic.mac1609_4 	RXTXLostPackets 	0
scalar IntersectionExampleScenario.node[7].nic.mac1609_4 	TotalLostPackets 	0
scalar IntersectionExampleScenario.node[7].nic.mac1609_4 	DroppedPacketsInMac 	0
scalar IntersectionExampleScenario.node[7].nic.mac1609_4 	TooLittleTime 	0
scalar IntersectionExampleScenario.node[7].nic.mac1609_4 	TimesIntoBackoff 	0
scalar IntersectionExampleScenario.node[7].nic.mac1609_4 	SlotsBackoff 	0
scalar IntersectionExampleScenario.node[7].nic.mac1609_4 	NumInternalContention 	0
scalar IntersectionExampleScenario.node[7].nic.mac1609_4 	totalBusyTime 	0
scalar IntersectionExampleScenario.node[7].veinsmobility 	startTime 	30.5
scalar IntersectionExampleScenario.node[7].veinsmobility 	totalTime 	53.25
scalar IntersectionExampleScenario.node[7].veinsmobility 	stopTime 	84
scalar IntersectionExampleScenario.node[7].veinsmobility 	minSpeed 	0
scalar IntersectionExampleScenario.node[7].veinsmobility 	maxSpeed 	15.64999961853
scalar IntersectionExampleScenario.node[7].veinsmobility 	totalDistance 	545.43277410189
scalar IntersectionExampleScenario.node[7].veinsmobility 	totalCO2Emission 	148.33936632585
scalar IntersectionExampleScenario.node[12].appl 	VehicleRemoved 	0
scalar IntersectionExampleScenario.node[12].appl 	ArrivedAtDest 	1
scalar IntersectionExampleScenario.node[12].appl 	IntersectionEnterTime 	47.75
scalar IntersectionExampleScenario.node[12].appl 	IntersectionExitTime 	70.524434369436
scalar IntersectionExampleScenario.node[12].appl 	NumberOfCollisions 	0
scalar IntersectionExampleScenario.node[12].nic.phy80211p 	busyTime 	0
scalar IntersectionExampleScenario.node[12].nic.mac1609_4 	ReceivedUnicastPackets 	0
scalar IntersectionExampleScenario.node[12].nic.mac1609_4 	ReceivedBroadcasts 	0
scalar IntersectionExampleScenario.node[12].nic.mac1609_4 	SentPackets 	0
scalar IntersectionExampleScenario.node[12].nic.mac1609_4 	SNIRLostPackets 	0
scalar IntersectionExampleScenario.node[12].nic.mac1609_4 	RXTXLostPackets 	0
scalar IntersectionExampleScenario.node[12].nic.mac1609_4 	TotalLostPackets 	0
scalar IntersectionExampleScenario.node[12].nic.mac1609_4 	DroppedPacketsInMac 	0
scalar IntersectionExampleScenario.node[12].nic.mac1609_4 	TooLittleTime 	0
scalar IntersectionExampleScenario.node[12].nic.mac1609_4 	TimesIntoBackoff 	0
scalar IntersectionExampleScenario.node[12].nic.mac1609_4 	SlotsBackoff 	0
scalar IntersectionExampleScenario.node[12].nic.mac1609_4 	NumInternalContention 	0
scalar IntersectionExampleScenario.node[12].nic.mac1609_4 	totalBusyTime 	0
scalar IntersectionExampleScenario.node[12].veinsmobility 	startTime 	47.75
scalar IntersectionExampleScenario.node[12].veinsmobility 	totalTime 	38.5
scalar IntersectionExampleScenario.node[12].veinsmobility 	stopTime 	86.5
scalar IntersectionExampleScenario.node[12].veinsmobility 	minSpeed 	5.6500000953674
scalar IntersectionExampleScenario.node[12].veinsmobility 	maxSpeed 	15.64999961853
scalar IntersectionExampleScenario.node[12].veinsmobility 	totalDistance 	551.1033706665
scalar IntersectionExampleScenario.node[12].veinsmobility 	totalCO2Emission 	119.57929580387
scalar IntersectionExampleScenario.node[6].appl 	VehicleRemoved 	0
scalar IntersectionExampleScenario.node[6].appl 	ArrivedAtDest 	1
scalar IntersectionExampleScenario.node[6].appl 	IntersectionEnterTime 	29.5
scalar IntersectionExampleScenario.node[6].appl 	IntersectionExitTime 	79.370491316164
scalar IntersectionExampleScenario.node[6].appl 	NumberOfCollisions 	0
scalar IntersectionExampleScenario.node[6].nic.phy80211p 	busyTime 	0
scalar IntersectionExampleScenario.node[6].nic.mac1609_4 	ReceivedUnicastPackets 	0
scalar IntersectionExampleScenario.node[6].nic.mac1609_4 	ReceivedBroadcasts 	0
scalar IntersectionExampleScenario.node[6].nic.mac1609_4 	SentPackets 	0
scalar IntersectionExampleScenario.node[6].nic.mac1609_4 	SNIRLostPackets 	0
scalar IntersectionExampleScenario.node[6].nic.mac1609_4 	RXTXLostPackets 	0
scalar IntersectionExampleScenario.node[6].nic.mac1609_4 	TotalLostPackets 	0
scalar IntersectionExampleScenario.node[6].nic.mac1609_4 	DroppedPacketsInMac 	0
scalar IntersectionExampleScenario.node[6].nic.mac1609_4 	TooLittleTime 	0
scalar IntersectionExampleScenario.node[6].nic.mac1609_4 	TimesIntoBackoff 	0
scalar IntersectionExampleScenario.node[6].nic.mac1609_4 	SlotsBackoff 	0
scalar IntersectionExampleScenario.node[6].nic.mac1609_4 	NumInternalContention 	0
scalar IntersectionExampleScenario.node[6].nic.mac1609_4 	totalBusyTime 	0
scalar IntersectionExampleScenario.node[6].veinsmobility 	startTime 	29.5
scalar IntersectionExampleScenario.node[6].veinsmobility 	totalTime 	66.5
scalar IntersectionExampleScenario.node[6].veinsmobility 	stopTime 	96.25
scalar IntersectionExampleScenario.node[6].veinsmobility 	minSpeed 	0
scalar IntersectionExampleScenario.node[6].veinsmobility 	maxSpeed 	15.02499961853
scalar IntersectionExampleScenario.node[6].veinsmobility 	totalDistance 	553.59940338135
scalar IntersectionExampleScenario.node[6].veinsmobility 	totalCO2Emission 	153.21962262687
scalar IntersectionExampleScenario.node[9].appl 	VehicleRemoved 	0
scalar IntersectionExampleScenario.node[9].appl 	ArrivedAtDest 	1
scalar IntersectionExampleScenario.node[9].appl 	IntersectionEnterTime 	39.5
scalar IntersectionExampleScenario.node[9].appl 	IntersectionExitTime 	80.373203050432
scalar IntersectionExampleScenario.node[9].appl 	NumberOfCollisions 	0
scalar IntersectionExampleScenario.node[9].nic.phy80211p 	busyTime 	0
scalar IntersectionExampleScenario.node[9].nic.mac1609_4 	ReceivedUnicastPackets 	0
scalar IntersectionExampleScenario.node[9].nic.mac1609_4 	ReceivedBroadcasts 	0
scalar IntersectionExampleScenario.node[9].nic.mac1609_4 	SentPackets 	0
scalar IntersectionExampleScenario.node[9].nic.mac1609_4 	SNIRLostPackets 	0
scalar IntersectionExampleScenario.node[9].nic.mac1609_4 	RXTXLostPackets 	0
scalar IntersectionExampleScenario.node[9].nic.mac1609_4 	TotalLostPackets 	0
scalar IntersectionExampleScenario.node[9].nic.mac1609_4 	DroppedPacketsInMac 	0
scalar IntersectionExampleScenario.node[9].nic.mac1609_4 	TooLittleTime 	0
scalar IntersectionExampleScenario.node[9].nic.mac1609_4 	TimesIntoBackoff 	0
scalar IntersectionExampleScenario.node[9].nic.mac1609_4 	SlotsBackoff 	0
scalar IntersectionExampleScenario.node[9].nic.mac1609_4 	NumInternalContention 	0
scalar IntersectionExampleScenario.node[9].nic.mac1609_4 	totalBusyTime 	0
scalar IntersectionExampleScenario.node[9].veinsmobility 	startTime 	39.5
scalar IntersectionExampleScenario.node[9].veinsmobility 	totalTime 	57.25
scalar IntersectionExampleScenario.node[9].veinsmobility 	stopTime 	97
scalar IntersectionExampleScenario.node[9].veinsmobility 	minSpeed 	0
scalar IntersectionExampleScenario.node[9].veinsmobility 	maxSpeed 	15.375
scalar IntersectionExampleScenario.node[9].veinsmobility 	totalDistance 	549.45709850885
scalar IntersectionExampleScenario.node[9].veinsmobility 	totalCO2Emission 	144.73569052031
scalar IntersectionExampleScenario.node[15].appl 	VehicleRemoved 	0
scalar IntersectionExampleScenario.node[15].appl 	ArrivedAtDest 	1
scalar IntersectionExampleScenario.node[15].appl 	IntersectionEnterTime 	57
scalar IntersectionExampleScenario.node[15].appl 	IntersectionExitTime 	82.524391372834
scalar IntersectionExampleScenario.node[15].appl 	NumberOfCollisions 	0
scalar IntersectionExampleScenario.node[15].nic.phy80211p 	busyTime 	0
scalar IntersectionExampleScenario.node[15].nic.mac1609_4 	ReceivedUnicastPackets 	0
scalar IntersectionExampleScenario.node[15].nic.mac1609_4 	ReceivedBroadcasts 	0
scalar IntersectionExampleScenario.node[15].nic.mac1609_4 	SentPackets 	0
scalar IntersectionExampleScenario.node[15].nic.mac1609_4 	SNIRLostPackets 	0
scalar IntersectionExampleScenario.node[15].nic.mac1609_4 	RXTXLostPackets 	0
scalar IntersectionExampleScenario.node[15].nic.mac1609_4 	TotalLostPackets 	0
scalar IntersectionExampleScenario.node[15].nic.mac1609_4 	DroppedPacketsInMac 	0
scalar IntersectionExampleScenario.node[15].nic.mac1609_4 	TooLittleTime 	0
scalar IntersectionExampleScenario.node[15].nic.mac1609_4 	TimesIntoBackoff 	0
scalar IntersectionExampleScenario.node[15].nic.mac1609_4 	SlotsBackoff 	0
scalar IntersectionExampleScenario.node[15].nic.mac1609_4 	NumInternalContention 	0
scalar IntersectionExampleScenario.node[15].nic.mac1609_4 	totalBusyTime 	0
scalar IntersectionExampleScenario.node[15].veinsmobility 	startTime 	57
scalar IntersectionExampleScenario.node[15].veinsmobility 	totalTime 	41.25
scalar IntersectionExampleScenario.node[15].veinsmobility 	stopTime 	98.5
scalar IntersectionExampleScenario.node[15].veinsmobility 	minSpeed 	5.6500000953674
scalar IntersectionExampleScenario.node[15].veinsmobility 	maxSpeed 	15.64999961853
scalar IntersectionExampleScenario.node[15].veinsmobility 	totalDistance 	550.77127838135
scalar IntersectionExampleScenario.node[15].veinsmobility 	totalCO2Emission 	130.46782038717
scalar IntersectionExampleScenario.node[16].appl 	VehicleRemoved 	0
scalar IntersectionExampleScenario.node[16].appl 	ArrivedAtDest 	1
scalar IntersectionExampleScenario.node[16].appl 	IntersectionEnterTime 	63.25
scalar IntersectionExampleScenario.node[16].appl 	IntersectionExitTime 	87.303025713714
scalar IntersectionExampleScenario.node[16].appl 	NumberOfCollisions 	0
scalar IntersectionExampleScenario.node[16].nic.phy80211p 	busyTime 	0
scalar IntersectionExampleScenario.node[16].nic.mac1609_4 	ReceivedUnicastPackets 	0
scalar IntersectionExampleScenario.node[16].nic.mac1609_4 	ReceivedBroadcasts 	0
scalar IntersectionExampleScenario.node[16].nic.mac1609_4 	SentPackets 	0
scalar IntersectionExampleScenario.node[16].nic.mac1609_4 	SNIRLostPackets 	0
scalar IntersectionExampleScenario.node[16].nic.mac1609_4 	RXTXLostPackets 	0
scalar IntersectionExampleScenario.node[16].nic.mac1609_4 	TotalLostPackets 	0
scalar IntersectionExampleScenario.node[16].nic.mac1609_4 	DroppedPacketsInMac 	0
scalar IntersectionExampleScenario.node[16].nic.mac1609_4 	TooLittleTime 	0
scalar IntersectionExampleScenario.node[16].nic.mac1609_4 	TimesIntoBackoff 	0
scalar IntersectionExampleScenario.node[16].nic.mac1609_4 	SlotsBackoff 	0
scalar IntersectionExampleScenario.node[16].nic.mac1609_4 	NumInternalContention 	0
scalar IntersectionExampleScenario.node[16].nic.mac1609_4 	totalBusyTime 	0
scalar IntersectionExampleScenario.node[16].veinsmobility 	startTime 	63.25
scalar IntersectionExampleScenario.node[16].veinsmobility 	totalTime 	41.25
scalar IntersectionExampleScenario.node[16].veinsmobility 	stopTime 	104.75
scalar IntersectionExampleScenario.node[16].veinsmobility 	minSpeed 	5.6500000953674
scalar IntersectionExampleScenario.node[16].veinsmobility 	maxSpeed 	15.25
scalar IntersectionExampleScenario.node[16].veinsmobility 	totalDistance 	544.825753245
scalar IntersectionExampleScenario.node[16].veinsmobility 	totalCO2Emission 	125.21489054416
scalar IntersectionExampleScenario.node[11].appl 	VehicleRemoved 	0
scalar IntersectionExampleScenario.node[11].appl 	ArrivedAtDest 	1
scalar IntersectionExampleScenario.node[11].appl 	IntersectionEnterTime 	40.75
scalar IntersectionExampleScenario.node[11].appl 	IntersectionExitTime 	93.508063362155
scalar IntersectionExampleScenario.node[11].appl 	NumberOfCollisions 	0
scalar IntersectionExampleScenario.node[11].nic.phy80211p 	busyTime 	0
scalar IntersectionExampleScenario.node[11].nic.mac1609_4 	ReceivedUnicastPackets 	0
scalar IntersectionExampleScenario.node[11].nic.mac1609_4 	ReceivedBroadcasts 	0
scalar IntersectionExampleScenario.node[11].nic.mac1609_4 	SentPackets 	0
scalar IntersectionExampleScenario.node[11].nic.mac1609_4 	SNIRLostPackets 	0
scalar IntersectionExampleScenario.node[11].nic.mac1609_4 	RXTXLostPackets 	0
scalar IntersectionExampleScenario.node[11].nic.mac1609_4 	TotalLostPackets 	0
scalar IntersectionExampleScenario.node[11].nic.mac1609_4 	DroppedPacketsInMac 	0
scalar IntersectionExampleScenario.node[11].nic.mac1609_4 	TooLittleTime 	0
scalar IntersectionExampleScenario.node[11].nic.mac1609_4 	TimesIntoBackoff 	0
scalar IntersectionExampleScenario.node[11].nic.mac1609_4 	SlotsBackoff 	0
scalar IntersectionExampleScenario.node[11].nic.mac1609_4 	NumInternalContention 	0
scalar IntersectionExampleScenario.node[11].nic.mac1609_4 	totalBusyTime 	0
scalar IntersectionExampleScenario.node[11].veinsmobility 	startTime 	40.75
scalar IntersectionExampleScenario.node[11].veinsmobility 	totalTime 	69.75
scalar IntersectionExampleScenario.node[11].veinsmobility 	stopTime 	110.75
scalar IntersectionExampleScenario.node[11].veinsmobility 	minSpeed 	0
scalar IntersectionExampleScenario.node[11].veinsmobility 	maxSpeed 	15.25
scalar IntersectionExampleScenario.node[11].veinsmobility 	totalDistance 	544.46385861785
scalar IntersectionExampleScenario.node[11].veinsmobility 	totalCO2Emission 	158.96688762761
scalar IntersectionExampleScenario.node[13].appl 	VehicleRemoved 	0
scalar IntersectionExampleScenario.node[13].appl 	ArrivedAtDest 	1
scalar IntersectionExampleScenario.node[13].appl 	IntersectionEnterTime 	53.25
scalar IntersectionExampleScenario.node[13].appl 	IntersectionExitTime 	95.809289571043
scalar IntersectionExampleScenario.node[13].appl 	NumberOfCollisions 	0
scalar IntersectionExampleScenario.node[13].nic.phy80211p 	busyTime 	0
scalar IntersectionExampleScenario.node[13].nic.mac1609_4 	ReceivedUnicastPackets 	0
scalar IntersectionExampleScenario.node[13].nic.mac1609_4 	ReceivedBroadcasts 	0
scalar IntersectionExampleScenario.node[13].nic.mac1609_4 	SentPackets 	0
scalar IntersectionExampleScenario.node[13].nic.mac1609_4 	SNIRLostPackets 	0
scalar IntersectionExampleScenario.node[13].nic.mac1609_4 	RXTXLostPackets 	0
scalar IntersectionExampleScenario.node[13].nic.mac1609_4 	TotalLostPackets 	0
scalar IntersectionExampleScenario.node[13].nic.mac1609_4 	DroppedPacketsInMac 	0
scalar IntersectionExampleScenario.node[13].nic.mac1609_4 	TooLittleTime 	0
scalar IntersectionExampleScenario.node[13].nic.mac1609_4 	TimesIntoBackoff 	0
scalar IntersectionExampleScenario.node[13].nic.mac1609_4 	SlotsBackoff 	0
scalar IntersectionExampleScenario.node[13].nic.mac1609_4 	NumInternalContention 	0
scalar IntersectionExampleScenario.node[13].nic.mac1609_4 	totalBusyTime 	0
scalar IntersectionExampleScenario.node[13].veinsmobility 	startTime 	53.25
scalar IntersectionExampleScenario.node[13].veinsmobility 	totalTime 	59
scalar IntersectionExampleScenario.node[13].veinsmobility 	stopTime 	112.5
scalar IntersectionExampleScenario.node[13].veinsmobility 	minSpeed 	0
scalar IntersectionExampleScenario.node[13].veinsmobility 	maxSpeed 	16.27499961853
scalar IntersectionExampleScenario.node[13].veinsmobility 	totalDistance 	546.41554027579
scalar IntersectionExampleScenario.node[13].veinsmobility 	totalCO2Emission 	152.10230076287
scalar IntersectionExampleScenario.node[14].appl 	VehicleRemoved 	0
scalar IntersectionExampleScenario.node[14].appl 	ArrivedAtDest 	1
scalar IntersectionExampleScenario.node[14].appl 	IntersectionEnterTime 	55
scalar IntersectionExampleScenario.node[14].appl 	IntersectionExitTime 	98.367881691724
scalar IntersectionExampleScenario.node[14].appl 	NumberOfCollisions 	0
scalar IntersectionExampleScenario.node[14].nic.phy80211p 	busyTime 	0
scalar IntersectionExampleScenario.node[14].nic.mac1609_4 	ReceivedUnicastPackets 	0
scalar IntersectionExampleScenario.node[14].nic.mac1609_4 	ReceivedBroadcasts 	0
scalar IntersectionExampleScenario.node[14].nic.mac1609_4 	SentPackets 	0
scalar IntersectionExampleScenario.node[14].nic.mac1609_4 	SNIRLostPackets 	0
scalar IntersectionExampleScenario.node[14].nic.mac1609_4 	RXTXLostPackets 	0
scalar IntersectionExampleScenario.node[14].nic.mac1609_4 	TotalLostPackets 	0
scalar IntersectionExampleScenario.node[14].nic.mac1609_4 	DroppedPacketsInMac 	0
scalar IntersectionExampleScenario.node[14].nic.mac1609_4 	TooLittleTime 	0
scalar IntersectionExampleScenario.node[14].nic.mac1609_4 	TimesIntoBackoff 	0
scalar IntersectionExampleScenario.node[14].nic.mac1609_4 	SlotsBackoff 	0
scalar IntersectionExampleScenario.node[14].nic.mac1609_4 	NumInternalContention 	0
scalar IntersectionExampleScenario.node[14].nic.mac1609_4 	totalBusyTime 	0
scalar IntersectionExampleScenario.node[14].veinsmobility 	startTime 	55
scalar IntersectionExampleScenario.node[14].veinsmobility 	totalTime 	59.5
scalar IntersectionExampleScenario.node[14].veinsmobility 	stopTime 	114.75
scalar IntersectionExampleScenario.node[14].veinsmobility 	minSpeed 	0
scalar IntersectionExampleScenario.node[14].veinsmobility 	maxSpeed 	16.27499961853
scalar IntersectionExampleScenario.node[14].veinsmobility 	totalDistance 	566.11163155406
scalar IntersectionExampleScenario.node[14].veinsmobility 	totalCO2Emission 	157.90698892851
scalar IntersectionExampleScenario.node[17].appl 	VehicleRemoved 	0
scalar IntersectionExampleScenario.node[17].appl 	ArrivedAtDest 	1
scalar IntersectionExampleScenario.node[17].appl 	IntersectionEnterTime 	69.5
scalar IntersectionExampleScenario.node[17].appl 	IntersectionExitTime 	100.10447677082
scalar IntersectionExampleScenario.node[17].appl 	NumberOfCollisions 	0
scalar IntersectionExampleScenario.node[17].nic.phy80211p 	busyTime 	0
scalar IntersectionExampleScenario.node[17].nic.mac1609_4 	ReceivedUnicastPackets 	0
scalar IntersectionExampleScenario.node[17].nic.mac1609_4 	ReceivedBroadcasts 	0
scalar IntersectionExampleScenario.node[17].nic.mac1609_4 	SentPackets 	0
scalar IntersectionExampleScenario.node[17].nic.mac1609_4 	SNIRLostPackets 	0
scalar IntersectionExampleScenario.node[17].nic.mac1609_4 	RXTXLostPackets 	0
scalar IntersectionExampleScenario.node[17].nic.mac1609_4 	TotalLostPackets 	0
scalar IntersectionExampleScenario.node[17].nic.mac1609_4 	DroppedPacketsInMac 	0
scalar IntersectionExampleScenario.node[17].nic.mac1609_4 	TooLittleTime 	0
scalar IntersectionExampleScenario.node[17].nic.mac1609_4 	TimesIntoBackoff 	0
scalar IntersectionExampleScenario.node[17].nic.mac1609_4 	SlotsBackoff 	0
scalar IntersectionExampleScenario.node[17].nic.mac1609_4 	NumInternalContention 	0
scalar IntersectionExampleScenario.node[17].nic.mac1609_4 	totalBusyTime 	0
scalar IntersectionExampleScenario.node[17].veinsmobility 	startTime 	69.5
scalar IntersectionExampleScenario.node[17].veinsmobility 	totalTime 	46.5
scalar IntersectionExampleScenario.node[17].veinsmobility 	stopTime 	116.25
scalar IntersectionExampleScenario.node[17].veinsmobility 	minSpeed 	3.8474776744843
scalar IntersectionExampleScenario.node[17].veinsmobility 	maxSpeed 	15.64999961853
scalar IntersectionExampleScenario.node[17].veinsmobility 	totalDistance 	554.76605224609
scalar IntersectionExampleScenario.node[17].veinsmobility 	totalCO2Emission 	135.45457729556
scalar IntersectionExampleScenario.node[18].appl 	VehicleRemoved 	0
scalar IntersectionExampleScenario.node[18].appl 	ArrivedAtDest 	1
scalar IntersectionExampleScenario.node[18].appl 	IntersectionEnterTime 	70.25
scalar IntersectionExampleScenario.node[18].appl 	IntersectionExitTime 	102.02209030557
scalar IntersectionExampleScenario.node[18].appl 	NumberOfCollisions 	0
scalar IntersectionExampleScenario.node[18].nic.phy80211p 	busyTime 	0
scalar IntersectionExampleScenario.node[18].nic.mac1609_4 	ReceivedUnicastPackets 	0
scalar IntersectionExampleScenario.node[18].nic.mac1609_4 	ReceivedBroadcasts 	0
scalar IntersectionExampleScenario.node[18].nic.mac1609_4 	SentPackets 	0
scalar IntersectionExampleScenario.node[18].nic.mac1609_4 	SNIRLostPackets 	0
scalar IntersectionExampleScenario.node[18].nic.mac1609_4 	RXTXLostPackets 	0
scalar IntersectionExampleScenario.node[18].nic.mac1609_4 	TotalLostPackets 	0
scalar IntersectionExampleScenario.node[18].nic.mac1609_4 	DroppedPacketsInMac 	0
scalar IntersectionExampleScenario.node[18].nic.mac1609_4 	TooLittleTime 	0
scalar IntersectionExampleScenario.node[18].nic.mac1609_4 	TimesIntoBackoff 	0
scalar IntersectionExampleScenario.node[18].nic.mac1609_4 	SlotsBackoff 	0
scalar IntersectionExampleScenario.node[18].nic.mac1609_4 	NumInternalContention 	0
scalar IntersectionExampleScenario.node[18].nic.mac1609_4 	totalBusyTime 	0
scalar IntersectionExampleScenario.node[18].veinsmobility 	startTime 	70.25
scalar IntersectionExampleScenario.node[18].veinsmobility 	totalTime 	48.25
scalar IntersectionExampleScenario.node[18].veinsmobility 	stopTime 	118.75
scalar IntersectionExampleScenario.node[18].veinsmobility 	minSpeed 	3.7049922943115
scalar IntersectionExampleScenario.node[18].veinsmobility 	maxSpeed 	15.422836303711
scalar IntersectionExampleScenario.node[18].veinsmobility 	totalDistance 	577.98313903809
scalar IntersectionExampleScenario.node[18].veinsmobility 	totalCO2Emission 	137.91756325685
scalar IntersectionExampleScenario.node[20].appl 	VehicleRemoved 	0
scalar IntersectionExampleScenario.node[20].appl 	ArrivedAtDest 	1
scalar IntersectionExampleScenario.node[20].appl 	IntersectionEnterTime 	74.5
scalar IntersectionExampleScenario.node[20].appl 	IntersectionExitTime 	104.60544437039
scalar IntersectionExampleScenario.node[20].appl 	NumberOfCollisions 	0
scalar IntersectionExampleScenario.node[20].nic.phy80211p 	busyTime 	0
scalar IntersectionExampleScenario.node[20].nic.mac1609_4 	ReceivedUnicastPackets 	0
scalar IntersectionExampleScenario.node[20].nic.mac1609_4 	ReceivedBroadcasts 	0
scalar IntersectionExampleScenario.node[20].nic.mac1609_4 	SentPackets 	0
scalar IntersectionExampleScenario.node[20].nic.mac1609_4 	SNIRLostPackets 	0
scalar IntersectionExampleScenario.node[20].nic.mac1609_4 	RXTXLostPackets 	0
scalar IntersectionExampleScenario.node[20].nic.mac1609_4 	TotalLostPackets 	0
scalar IntersectionExampleScenario.node[20].nic.mac1609_4 	DroppedPacketsInMac 	0
scalar IntersectionExampleScenario.node[20].nic.mac1609_4 	TooLittleTime 	0
scalar IntersectionExampleScenario.node[20].nic.mac1609_4 	TimesIntoBackoff 	0
scalar IntersectionExampleScenario.node[20].nic.mac1609_4 	SlotsBackoff 	0
scalar IntersectionExampleScenario.node[20].nic.mac1609_4 	NumInternalContention 	0
scalar IntersectionExampleScenario.node[20].nic.mac1609_4 	totalBusyTime 	0
scalar IntersectionExampleScenario.node[20].veinsmobility 	startTime 	74.5
scalar IntersectionExampleScenario.node[20].veinsmobility 	totalTime 	47.25
scalar IntersectionExampleScenario.node[20].veinsmobility 	stopTime 	122
scalar IntersectionExampleScenario.node[20].veinsmobility 	minSpeed 	5.4886989593506
scalar IntersectionExampleScenario.node[20].veinsmobility 	maxSpeed 	15.25
scalar IntersectionExampleScenario.node[20].veinsmobility 	totalDistance 	562.6385981732
scalar IntersectionExampleScenario.node[20].veinsmobility 	totalCO2Emission 	135.29070772311
scalar IntersectionExampleScenario.node[21].appl 	VehicleRemoved 	0
scalar IntersectionExampleScenario.node[21].appl 	ArrivedAtDest 	1
scalar IntersectionExampleScenario.node[21].appl 	IntersectionEnterTime 	77.25
scalar IntersectionExampleScenario.node[21].appl 	IntersectionExitTime 	108.31379434932
scalar IntersectionExampleScenario.node[21].appl 	NumberOfCollisions 	0
scalar IntersectionExampleScenario.node[21].nic.phy80211p 	busyTime 	0
scalar IntersectionExampleScenario.node[21].nic.mac1609_4 	ReceivedUnicastPackets 	0
scalar IntersectionExampleScenario.node[21].nic.mac1609_4 	ReceivedBroadcasts 	0
scalar IntersectionExampleScenario.node[21].nic.mac1609_4 	SentPackets 	0
scalar IntersectionExampleScenario.node[21].nic.mac1609_4 	SNIRLostPackets 	0
scalar IntersectionExampleScenario.node[21].nic.mac1609_4 	RXTXLostPackets 	0
scalar IntersectionExampleScenario.node[21].nic.mac1609_4 	TotalLostPackets 	0
scalar IntersectionExampleScenario.node[21].nic.mac1609_4 	DroppedPacketsInMac 	0
scalar IntersectionExampleScenario.node[21].nic.mac1609_4 	TooLittleTime 	0
scalar IntersectionExampleScenario.node[21].nic.mac1609_4 	TimesIntoBackoff 	0
scalar IntersectionExampleScenario.node[21].nic.mac1609_4 	SlotsBackoff 	0
scalar IntersectionExampleScenario.node[21].nic.mac1609_4 	NumInternalContention 	0
scalar IntersectionExampleScenario.node[21].nic.mac1609_4 	totalBusyTime 	0
scalar IntersectionExampleScenario.node[21].veinsmobility 	startTime 	77.25
scalar IntersectionExampleScenario.node[21].veinsmobility 	totalTime 	46.75
scalar IntersectionExampleScenario.node[21].veinsmobility 	stopTime 	124.25
scalar IntersectionExampleScenario.node[21].veinsmobility 	minSpeed 	0
scalar IntersectionExampleScenario.node[21].veinsmobility 	maxSpeed 	16.27499961853
scalar IntersectionExampleScenario.node[21].veinsmobility 	totalDistance 	551.49507249942
scalar IntersectionExampleScenario.node[21].veinsmobility 	totalCO2Emission 	143.36998038682
scalar IntersectionExampleScenario.node[25].appl 	VehicleRemoved 	0
scalar IntersectionExampleScenario.node[25].appl 	ArrivedAtDest 	1
scalar IntersectionExampleScenario.node[25].appl 	IntersectionEnterTime 	86.25
scalar IntersectionExampleScenario.node[25].appl 	IntersectionExitTime 	111.25674526222
scalar IntersectionExampleScenario.node[25].appl 	NumberOfCollisions 	0
scalar IntersectionExampleScenario.node[25].nic.phy80211p 	busyTime 	0
scalar IntersectionExampleScenario.node[25].nic.mac1609_4 	ReceivedUnicastPackets 	0
scalar IntersectionExampleScenario.node[25].nic.mac1609_4 	ReceivedBroadcasts 	0
scalar IntersectionExampleScenario.node[25].nic.mac1609_4 	SentPackets 	0
scalar IntersectionExampleScenario.node[25].nic.mac1609_4 	SNIRLostPackets 	0
scalar IntersectionExampleScenario.node[25].nic.mac1609_4 	RXTXLostPackets 	0
scalar IntersectionExampleScenario.node[25].nic.mac1609_4 	TotalLostPackets 	0
scalar IntersectionExampleScenario.node[25].nic.mac1609_4 	DroppedPacketsInMac 	0
scalar IntersectionExampleScenario.node[25].nic.mac1609_4 	TooLittleTime 	0
scalar IntersectionExampleScenario.node[25].nic.mac1609_4 	TimesIntoBackoff 	0
scalar IntersectionExampleScenario.node[25].nic.mac1609_4 	SlotsBackoff 	0
scalar IntersectionExampleScenario.node[25].nic.mac1609_4 	NumInternalContention 	0
scalar IntersectionExampleScenario.node[25].nic.mac1609_4 	totalBusyTime 	0
scalar IntersectionExampleScenario.node[25].veinsmobility 	startTime 	86.25
scalar IntersectionExampleScenario.node[25].veinsmobility 	totalTime 	41.75
scalar IntersectionExampleScenario.node[25].veinsmobility 	stopTime 	128.25
scalar IntersectionExampleScenario.node[25].veinsmobility 	minSpeed 	5.6500000953674
scalar IntersectionExampleScenario.node[25].veinsmobility 	maxSpeed 	15.875
scalar IntersectionExampleScenario.node[25].veinsmobility 	totalDistance 	546.89057930431
scalar IntersectionExampleScenario.node[25].veinsmobility 	totalCO2Emission 	140.41648813501
scalar IntersectionExampleScenario.node[19].appl 	VehicleRemoved 	0
scalar IntersectionExampleScenario.node[19].appl 	ArrivedAtDest 	1
scalar IntersectionExampleScenario.node[19].appl 	IntersectionEnterTime 	72.5
scalar IntersectionExampleScenario.node[19].appl 	IntersectionExitTime 	124.36133603242
scalar IntersectionExampleScenario.node[19].appl 	NumberOfCollisions 	0
scalar IntersectionExampleScenario.node[19].nic.phy80211p 	busyTime 	0
scalar IntersectionExampleScenario.node[19].nic.mac1609_4 	ReceivedUnicastPackets 	0
scalar IntersectionExampleScenario.node[19].nic.mac1609_4 	ReceivedBroadcasts 	0
scalar IntersectionExampleScenario.node[19].nic.mac1609_4 	SentPackets 	0
scalar IntersectionExampleScenario.node[19].nic.mac1609_4 	SNIRLostPackets 	0
scalar IntersectionExampleScenario.node[19].nic.mac1609_4 	RXTXLostPackets 	0
scalar IntersectionExampleScenario.node[19].nic.mac1609_4 	TotalLostPackets 	0
scalar IntersectionExampleScenario.node[19].nic.mac1609_4 	DroppedPacketsInMac 	0
scalar IntersectionExampleScenario.node[19].nic.mac1609_4 	TooLittleTime 	0
scalar IntersectionExampleScenario.node[19].nic.mac1609_4 	TimesIntoBackoff 	0
scalar IntersectionExampleScenario.node[19].nic.mac1609_4 	SlotsBackoff 	0
scalar IntersectionExampleScenario.node[19].nic.mac1609_4 	NumInternalContention 	0
scalar IntersectionExampleScenario.node[19].nic.mac1609_4 	totalBusyTime 	0
scalar IntersectionExampleScenario.node[19].veinsmobility 	startTime 	72.5
scalar IntersectionExampleScenario.node[19].veinsmobility 	totalTime 	68
scalar IntersectionExampleScenario.node[19].veinsmobility 	stopTime 	140.75
scalar IntersectionExampleScenario.node[19].veinsmobility 	minSpeed 	0
scalar IntersectionExampleScenario.node[19].veinsmobility 	maxSpeed 	15.375
scalar IntersectionExampleScenario.node[19].veinsmobility 	totalDistance 	548.74365343204
scalar IntersectionExampleScenario.node[19].veinsmobility 	totalCO2Emission 	157.17402183564
scalar IntersectionExampleScenario.node[22].appl 	VehicleRemoved 	0
scalar IntersectionExampleScenario.node[22].appl 	ArrivedAtDest 	1
scalar IntersectionExampleScenario.node[22].appl 	IntersectionEnterTime 	78.5
scalar IntersectionExampleScenario.node[22].appl 	IntersectionExitTime 	125.35746336167
scalar IntersectionExampleScenario.node[22].appl 	NumberOfCollisions 	0
scalar IntersectionExampleScenario.node[22].nic.phy80211p 	busyTime 	0
scalar IntersectionExampleScenario.node[22].nic.mac1609_4 	ReceivedUnicastPackets 	0
scalar IntersectionExampleScenario.node[22].nic.mac1609_4 	ReceivedBroadcasts 	0
scalar IntersectionExampleScenario.node[22].nic.mac1609_4 	SentPackets 	0
scalar IntersectionExampleScenario.node[22].nic.mac1609_4 	SNIRLostPackets 	0
scalar IntersectionExampleScenario.node[22].nic.mac1609_4 	RXTXLostPackets 	0
scalar IntersectionExampleScenario.node[22].nic.mac1609_4 	TotalLostPackets 	0
scalar IntersectionExampleScenario.node[22].nic.mac1609_4 	DroppedPacketsInMac 	0
scalar IntersectionExampleScenario.node[22].nic.mac1609_4 	TooLittleTime 	0
scalar IntersectionExampleScenario.node[22].nic.mac1609_4 	TimesIntoBackoff 	0
scalar IntersectionExampleScenario.node[22].nic.mac1609_4 	SlotsBackoff 	0
scalar IntersectionExampleScenario.node[22].nic.mac1609_4 	NumInternalContention 	0
scalar IntersectionExampleScenario.node[22].nic.mac1609_4 	totalBusyTime 	0
scalar IntersectionExampleScenario.node[22].veinsmobility 	startTime 	78.5
scalar IntersectionExampleScenario.node[22].veinsmobility 	totalTime 	62.75
scalar IntersectionExampleScenario.node[22].veinsmobility 	stopTime 	141.5
scalar IntersectionExampleScenario.node[22].veinsmobility 	minSpeed 	0
scalar IntersectionExampleScenario.node[22].veinsmobility 	maxSpeed 	15.5
scalar IntersectionExampleScenario.node[22].veinsmobility 	totalDistance 	552.1268081665
scalar IntersectionExampleScenario.node[22].veinsmobility 	totalCO2Emission 	153.39977392035
scalar IntersectionExampleScenario.node[23].appl 	VehicleRemoved 	0
scalar IntersectionExampleScenario.node[23].appl 	ArrivedAtDest 	1
scalar IntersectionExampleScenario.node[23].appl 	IntersectionEnterTime 	83.75
scalar IntersectionExampleScenario.node[23].appl 	IntersectionExitTime 	127.31434224569
scalar IntersectionExampleScenario.node[23].appl 	NumberOfCollisions 	0
scalar IntersectionExampleScenario.node[23].nic.phy80211p 	busyTime 	0
scalar IntersectionExampleScenario.node[23].nic.mac1609_4 	ReceivedUnicastPackets 	0
scalar IntersectionExampleScenario.node[23].nic.mac1609_4 	ReceivedBroadcasts 	0
scalar IntersectionExampleScenario.node[23].nic.mac1609_4 	SentPackets 	0
scalar IntersectionExampleScenario.node[23].nic.mac1609_4 	SNIRLostPackets 	0
scalar IntersectionExampleScenario.node[23].nic.mac1609_4 	RXTXLostPackets 	0
scalar IntersectionExampleScenario.node[23].nic.mac1609_4 	TotalLostPackets 	0
scalar IntersectionExampleScenario.node[23].nic.mac1609_4 	DroppedPacketsInMac 	0
scalar IntersectionExampleScenario.node[23].nic.mac1609_4 	TooLittleTime 	0
scalar IntersectionExampleScenario.node[23].nic.mac1609_4 	TimesIntoBackoff 	0
scalar IntersectionExampleScenario.node[23].nic.mac1609_4 	SlotsBackoff 	0
scalar IntersectionExampleScenario.node[23].nic.mac1609_4 	NumInternalContention 	0
scalar IntersectionExampleScenario.node[23].nic.mac1609_4 	totalBusyTime 	0
scalar IntersectionExampleScenario.node[23].veinsmobility 	startTime 	83.75
scalar IntersectionExampleScenario.node[23].veinsmobility 	totalTime 	59.25
scalar IntersectionExampleScenario.node[23].veinsmobility 	stopTime 	143.25
scalar IntersectionExampleScenario.node[23].veinsmobility 	minSpeed 	0
scalar IntersectionExampleScenario.node[23].veinsmobility 	maxSpeed 	15.72243309021
scalar IntersectionExampleScenario.node[23].veinsmobility 	totalDistance 	554.04459381104
scalar IntersectionExampleScenario.node[23].veinsmobility 	totalCO2Emission 	152.49699974637
scalar IntersectionExampleScenario.node[26].appl 	VehicleRemoved 	0
scalar IntersectionExampleScenario.node[26].appl 	ArrivedAtDest 	1
scalar IntersectionExampleScenario.node[26].appl 	IntersectionEnterTime 	91.25
scalar IntersectionExampleScenario.node[26].appl 	IntersectionExitTime 	129.29150601855
scalar IntersectionExampleScenario.node[26].appl 	NumberOfCollisions 	0
scalar IntersectionExampleScenario.node[26].nic.phy80211p 	busyTime 	0
scalar IntersectionExampleScenario.node[26].nic.mac1609_4 	ReceivedUnicastPackets 	0
scalar IntersectionExampleScenario.node[26].nic.mac1609_4 	ReceivedBroadcasts 	0
scalar IntersectionExampleScenario.node[26].nic.mac1609_4 	SentPackets 	0
scalar IntersectionExampleScenario.node[26].nic.mac1609_4 	SNIRLostPackets 	0
scalar IntersectionExampleScenario.node[26].nic.mac1609_4 	RXTXLostPackets 	0
scalar IntersectionExampleScenario.node[26].nic.mac1609_4 	TotalLostPackets 	0
scalar IntersectionExampleScenario.node[26].nic.mac1609_4 	DroppedPacketsInMac 	0
scalar IntersectionExampleScenario.node[26].nic.mac1609_4 	TooLittleTime 	0
scalar IntersectionExampleScenario.node[26].nic.mac1609_4 	TimesIntoBackoff 	0
scalar IntersectionExampleScenario.node[26].nic.mac1609_4 	SlotsBackoff 	0
scalar IntersectionExampleScenario.node[26].nic.mac1609_4 	NumInternalContention 	0
scalar IntersectionExampleScenario.node[26].nic.mac1609_4 	totalBusyTime 	0
scalar IntersectionExampleScenario.node[26].veinsmobility 	startTime 	91.25
scalar IntersectionExampleScenario.node[26].veinsmobility 	totalTime 	53.75
scalar IntersectionExampleScenario.node[26].veinsmobility 	stopTime 	145.25
scalar IntersectionExampleScenario.node[26].veinsmobility 	minSpeed 	0
scalar IntersectionExampleScenario.node[26].veinsmobility 	maxSpeed 	16.149454116821
scalar IntersectionExampleScenario.node[26].veinsmobility 	totalDistance 	551.24145022251
scalar IntersectionExampleScenario.node[26].veinsmobility 	totalCO2Emission 	145.97873754867
scalar IntersectionExampleScenario.node[30].appl 	VehicleRemoved 	0
scalar IntersectionExampleScenario.node[30].appl 	ArrivedAtDest 	1
scalar IntersectionExampleScenario.node[30].appl 	IntersectionEnterTime 	112.25
scalar IntersectionExampleScenario.node[30].appl 	IntersectionExitTime 	136.03262952223
scalar IntersectionExampleScenario.node[30].appl 	NumberOfCollisions 	0
scalar IntersectionExampleScenario.node[30].nic.phy80211p 	busyTime 	0
scalar IntersectionExampleScenario.node[30].nic.mac1609_4 	ReceivedUnicastPackets 	0
scalar IntersectionExampleScenario.node[30].nic.mac1609_4 	ReceivedBroadcasts 	0
scalar IntersectionExampleScenario.node[30].nic.mac1609_4 	SentPackets 	0
scalar IntersectionExampleScenario.node[30].nic.mac1609_4 	SNIRLostPackets 	0
scalar IntersectionExampleScenario.node[30].nic.mac1609_4 	RXTXLostPackets 	0
scalar IntersectionExampleScenario.node[30].nic.mac1609_4 	TotalLostPackets 	0
scalar IntersectionExampleScenario.node[30].nic.mac1609_4 	DroppedPacketsInMac 	0
scalar IntersectionExampleScenario.node[30].nic.mac1609_4 	TooLittleTime 	0
scalar IntersectionExampleScenario.node[30].nic.mac1609_4 	TimesIntoBackoff 	0
scalar IntersectionExampleScenario.node[30].nic.mac1609_4 	SlotsBackoff 	0
scalar IntersectionExampleScenario.node[30].nic.mac1609_4 	NumInternalContention 	0
scalar IntersectionExampleScenario.node[30].nic.mac1609_4 	totalBusyTime 	0
scalar IntersectionExampleScenario.node[30].veinsmobility 	startTime 	112.25
scalar IntersectionExampleScenario.node[30].veinsmobility 	totalTime 	40.75
scalar IntersectionExampleScenario.node[30].veinsmobility 	stopTime 	153.25
scalar IntersectionExampleScenario.node[30].veinsmobility 	minSpeed 	5.6500000953674
scalar IntersectionExampleScenario.node[30].veinsmobility 	maxSpeed 	15.25
scalar IntersectionExampleScenario.node[30].veinsmobility 	totalDistance 	545.97984025345
scalar IntersectionExampleScenario.node[30].veinsmobility 	totalCO2Emission 	124.9411878982
scalar IntersectionExampleScenario.node[24].appl 	VehicleRemoved 	0
scalar IntersectionExampleScenario.node[24].appl 	ArrivedAtDest 	1
scalar IntersectionExampleScenario.node[24].appl 	IntersectionEnterTime 	85.25
scalar IntersectionExampleScenario.node[24].appl 	IntersectionExitTime 	139.32157733128
scalar IntersectionExampleScenario.node[24].appl 	NumberOfCollisions 	0
scalar IntersectionExampleScenario.node[24].nic.phy80211p 	busyTime 	0
scalar IntersectionExampleScenario.node[24].nic.mac1609_4 	ReceivedUnicastPackets 	0
scalar IntersectionExampleScenario.node[24].nic.mac1609_4 	ReceivedBroadcasts 	0
scalar IntersectionExampleScenario.node[24].nic.mac1609_4 	SentPackets 	0
scalar IntersectionExampleScenario.node[24].nic.mac1609_4 	SNIRLostPackets 	0
scalar IntersectionExampleScenario.node[24].nic.mac1609_4 	RXTXLostPackets 	0
scalar IntersectionExampleScenario.node[24].nic.mac1609_4 	TotalLostPackets 	0
scalar IntersectionExampleScenario.node[24].nic.mac1609_4 	DroppedPacketsInMac 	0
scalar IntersectionExampleScenario.node[24].nic.mac1609_4 	TooLittleTime 	0
scalar IntersectionExampleScenario.node[24].nic.mac1609_4 	TimesIntoBackoff 	0
scalar IntersectionExampleScenario.node[24].nic.mac1609_4 	SlotsBackoff 	0
scalar IntersectionExampleScenario.node[24].nic.mac1609_4 	NumInternalContention 	0
scalar IntersectionExampleScenario.node[24].nic.mac1609_4 	totalBusyTime 	0
scalar IntersectionExampleScenario.node[24].veinsmobility 	startTime 	85.25
scalar IntersectionExampleScenario.node[24].veinsmobility 	totalTime 	69.75
scalar IntersectionExampleScenario.node[24].veinsmobility 	stopTime 	155.25
scalar IntersectionExampleScenario.node[24].veinsmobility 	minSpeed 	0
scalar IntersectionExampleScenario.node[24].veinsmobility 	maxSpeed 	16.27499961853
scalar IntersectionExampleScenario.node[24].veinsmobility 	totalDistance 	551.16355241885
scalar IntersectionExampleScenario.node[24].veinsmobility 	totalCO2Emission 	170.23663203787
scalar IntersectionExampleScenario.node[27].appl 	VehicleRemoved 	0
scalar IntersectionExampleScenario.node[27].appl 	ArrivedAtDest 	1
scalar IntersectionExampleScenario.node[27].appl 	IntersectionEnterTime 	95.5
scalar IntersectionExampleScenario.node[27].appl 	IntersectionExitTime 	140.05096071653
scalar IntersectionExampleScenario.node[27].appl 	NumberOfCollisions 	0
scalar IntersectionExampleScenario.node[27].nic.phy80211p 	busyTime 	0
scalar IntersectionExampleScenario.node[27].nic.mac1609_4 	ReceivedUnicastPackets 	0
scalar IntersectionExampleScenario.node[27].nic.mac1609_4 	ReceivedBroadcasts 	0
scalar IntersectionExampleScenario.node[27].nic.mac1609_4 	SentPackets 	0
scalar IntersectionExampleScenario.node[27].nic.mac1609_4 	SNIRLostPackets 	0
scalar IntersectionExampleScenario.node[27].nic.mac1609_4 	RXTXLostPackets 	0
scalar IntersectionExampleScenario.node[27].nic.mac1609_4 	TotalLostPackets 	0
scalar IntersectionExampleScenario.node[27].nic.mac1609_4 	DroppedPacketsInMac 	0
scalar IntersectionExampleScenario.node[27].nic.mac1609_4 	TooLittleTime 	0
scalar IntersectionExampleScenario.node[27].nic.mac1609_4 	TimesIntoBackoff 	0
scalar IntersectionExampleScenario.node[27].nic.mac1609_4 	SlotsBackoff 	0
scalar IntersectionExampleScenario.node[27].nic.mac1609_4 	NumInternalContention 	0
scalar IntersectionExampleScenario.node[27].nic.mac1609_4 	totalBusyTime 	0
scalar IntersectionExampleScenario.node[27].veinsmobility 	startTime 	95.5
scalar IntersectionExampleScenario.node[27].veinsmobility 	totalTime 	60.75
scalar IntersectionExampleScenario.node[27].veinsmobility 	stopTime 	156.5
scalar IntersectionExampleScenario.node[27].veinsmobility 	minSpeed 	0
scalar IntersectionExampleScenario.node[27].veinsmobility 	maxSpeed 	16.27499961853
scalar IntersectionExampleScenario.node[27].veinsmobility 	totalDistance 	543.60520926865
scalar IntersectionExampleScenario.node[27].veinsmobility 	totalCO2Emission 	154.29666723315
scalar IntersectionExampleScenario.node[32].appl 	VehicleRemoved 	0
scalar IntersectionExampleScenario.node[32].appl 	ArrivedAtDest 	1
scalar IntersectionExampleScenario.node[32].appl 	IntersectionEnterTime 	123.5
scalar IntersectionExampleScenario.node[32].appl 	IntersectionExitTime 	146.77502306178
scalar IntersectionExampleScenario.node[32].appl 	NumberOfCollisions 	0
scalar IntersectionExampleScenario.node[32].nic.phy80211p 	busyTime 	0
scalar IntersectionExampleScenario.node[32].nic.mac1609_4 	ReceivedUnicastPackets 	0
scalar IntersectionExampleScenario.node[32].nic.mac1609_4 	ReceivedBroadcasts 	0
scalar IntersectionExampleScenario.node[32].nic.mac1609_4 	SentPackets 	0
scalar IntersectionExampleScenario.node[32].nic.mac1609_4 	SNIRLostPackets 	0
scalar IntersectionExampleScenario.node[32].nic.mac1609_4 	RXTXLostPackets 	0
scalar IntersectionExampleScenario.node[32].nic.mac1609_4 	TotalLostPackets 	0
scalar IntersectionExampleScenario.node[32].nic.mac1609_4 	DroppedPacketsInMac 	0
scalar IntersectionExampleScenario.node[32].nic.mac1609_4 	TooLittleTime 	0
scalar IntersectionExampleScenario.node[32].nic.mac1609_4 	TimesIntoBackoff 	0
scalar IntersectionExampleScenario.node[32].nic.mac1609_4 	SlotsBackoff 	0
scalar IntersectionExampleScenario.node[32].nic.mac1609_4 	NumInternalContention 	0
scalar IntersectionExampleScenario.node[32].nic.mac1609_4 	totalBusyTime 	0
scalar IntersectionExampleScenario.node[32].veinsmobility 	startTime 	123.5
scalar IntersectionExampleScenario.node[32].veinsmobility 	totalTime 	39.75
scalar IntersectionExampleScenario.node[32].veinsmobility 	stopTime 	163.5
scalar IntersectionExampleScenario.node[32].veinsmobility 	minSpeed 	5.6500000953674
scalar IntersectionExampleScenario.node[32].veinsmobility 	maxSpeed 	15.875
scalar IntersectionExampleScenario.node[32].veinsmobility 	totalDistance 	545.50572653795
scalar IntersectionExampleScenario.node[32].veinsmobility 	totalCO2Emission 	128.26904674273
scalar IntersectionExampleScenario.node[28].appl 	VehicleRemoved 	0
scalar IntersectionExampleScenario.node[28].appl 	ArrivedAtDest 	1
scalar IntersectionExampleScenario.node[28].appl 	IntersectionEnterTime 	99.5
scalar IntersectionExampleScenario.node[28].appl 	IntersectionExitTime 	152.56583969507
scalar IntersectionExampleScenario.node[28].appl 	NumberOfCollisions 	0
scalar IntersectionExampleScenario.node[28].nic.phy80211p 	busyTime 	0
scalar IntersectionExampleScenario.node[28].nic.mac1609_4 	ReceivedUnicastPackets 	0
scalar IntersectionExampleScenario.node[28].nic.mac1609_4 	ReceivedBroadcasts 	0
scalar IntersectionExampleScenario.node[28].nic.mac1609_4 	SentPackets 	0
scalar IntersectionExampleScenario.node[28].nic.mac1609_4 	SNIRLostPackets 	0
scalar IntersectionExampleScenario.node[28].nic.mac1609_4 	RXTXLostPackets 	0
scalar IntersectionExampleScenario.node[28].nic.mac1609_4 	TotalLostPackets 	0
scalar IntersectionExampleScenario.node[28].nic.mac1609_4 	DroppedPacketsInMac 	0
scalar IntersectionExampleScenario.node[28].nic.mac1609_4 	TooLittleTime 	0
scalar IntersectionExampleScenario.node[28].nic.mac1609_4 	TimesIntoBackoff 	0
scalar IntersectionExampleScenario.node[28].nic.mac1609_4 	SlotsBackoff 	0
scalar IntersectionExampleScenario.node[28].nic.mac1609_4 	NumInternalContention 	0
scalar IntersectionExampleScenario.node[28].nic.mac1609_4 	totalBusyTime 	0
scalar IntersectionExampleScenario.node[28].veinsmobility 	startTime 	99.5
scalar IntersectionExampleScenario.node[28].veinsmobility 	totalTime 	70.5
scalar IntersectionExampleScenario.node[28].veinsmobility 	stopTime 	170.25
scalar IntersectionExampleScenario.node[28].veinsmobility 	minSpeed 	0
scalar IntersectionExampleScenario.node[28].veinsmobility 	maxSpeed 	15.02499961853
scalar IntersectionExampleScenario.node[28].veinsmobility 	totalDistance 	545.64540006072
scalar IntersectionExampleScenario.node[28].veinsmobility 	totalCO2Emission 	157.25602640952
scalar IntersectionExampleScenario.node[31].appl 	VehicleRemoved 	0
scalar IntersectionExampleScenario.node[31].appl 	ArrivedAtDest 	1
scalar IntersectionExampleScenario.node[31].appl 	IntersectionEnterTime 	118.5
scalar IntersectionExampleScenario.node[31].appl 	IntersectionExitTime 	154.58061568721
scalar IntersectionExampleScenario.node[31].appl 	NumberOfCollisions 	0
scalar IntersectionExampleScenario.node[31].nic.phy80211p 	busyTime 	0
scalar IntersectionExampleScenario.node[31].nic.mac1609_4 	ReceivedUnicastPackets 	0
scalar IntersectionExampleScenario.node[31].nic.mac1609_4 	ReceivedBroadcasts 	0
scalar IntersectionExampleScenario.node[31].nic.mac1609_4 	SentPackets 	0
scalar IntersectionExampleScenario.node[31].nic.mac1609_4 	SNIRLostPackets 	0
scalar IntersectionExampleScenario.node[31].nic.mac1609_4 	RXTXLostPackets 	0
scalar IntersectionExampleScenario.node[31].nic.mac1609_4 	TotalLostPackets 	0
scalar IntersectionExampleScenario.node[31].nic.mac1609_4 	DroppedPacketsInMac 	0
scalar IntersectionExampleScenario.node[31].nic.mac1609_4 	TooLittleTime 	0
scalar IntersectionExampleScenario.node[31].nic.mac1609_4 	TimesIntoBackoff 	0
scalar IntersectionExampleScenario.node[31].nic.mac1609_4 	SlotsBackoff 	0
scalar IntersectionExampleScenario.node[31].nic.mac1609_4 	NumInternalContention 	0
scalar IntersectionExampleScenario.node[31].nic.mac1609_4 	totalBusyTime 	0
scalar IntersectionExampleScenario.node[31].veinsmobility 	startTime 	118.5
scalar IntersectionExampleScenario.node[31].veinsmobility 	totalTime 	52.75
scalar IntersectionExampleScenario.node[31].veinsmobility 	stopTime 	171.5
scalar IntersectionExampleScenario.node[31].veinsmobility 	minSpeed 	0
scalar IntersectionExampleScenario.node[31].veinsmobility 	maxSpeed 	15.889010429382
scalar IntersectionExampleScenario.node[31].veinsmobility 	totalDistance 	550.96854470574
scalar IntersectionExampleScenario.node[31].veinsmobility 	totalCO2Emission 	151.32990276466
scalar IntersectionExampleScenario.node[29].appl 	VehicleRemoved 	0
scalar IntersectionExampleScenario.node[29].appl 	ArrivedAtDest 	1
scalar IntersectionExampleScenario.node[29].appl 	IntersectionEnterTime 	104.75
scalar IntersectionExampleScenario.node[29].appl 	IntersectionExitTime 	157.09624158416
scalar IntersectionExampleScenario.node[29].appl 	NumberOfCollisions 	0
scalar IntersectionExampleScenario.node[29].nic.phy80211p 	busyTime 	0
scalar IntersectionExampleScenario.node[29].nic.mac1609_4 	ReceivedUnicastPackets 	0
scalar IntersectionExampleScenario.node[29].nic.mac1609_4 	ReceivedBroadcasts 	0
scalar IntersectionExampleScenario.node[29].nic.mac1609_4 	SentPackets 	0
scalar IntersectionExampleScenario.node[29].nic.mac1609_4 	SNIRLostPackets 	0
scalar IntersectionExampleScenario.node[29].nic.mac1609_4 	RXTXLostPackets 	0
scalar IntersectionExampleScenario.node[29].nic.mac1609_4 	TotalLostPackets 	0
scalar IntersectionExampleScenario.node[29].nic.mac1609_4 	DroppedPacketsInMac 	0
scalar IntersectionExampleScenario.node[29].nic.mac1609_4 	TooLittleTime 	0
scalar IntersectionExampleScenario.node[29].nic.mac1609_4 	TimesIntoBackoff 	0
scalar IntersectionExampleScenario.node[29].nic.mac1609_4 	SlotsBackoff 	0
scalar IntersectionExampleScenario.node[29].nic.mac1609_4 	NumInternalContention 	0
scalar IntersectionExampleScenario.node[29].nic.mac1609_4 	totalBusyTime 	0
scalar IntersectionExampleScenario.node[29].veinsmobility 	startTime 	104.75
scalar IntersectionExampleScenario.node[29].veinsmobility 	totalTime 	68.5
scalar IntersectionExampleScenario.node[29].veinsmobility 	stopTime 	173.5
scalar IntersectionExampleScenario.node[29].veinsmobility 	minSpeed 	0
scalar IntersectionExampleScenario.node[29].veinsmobility 	maxSpeed 	15.741128921509
scalar IntersectionExampleScenario.node[29].veinsmobility 	totalDistance 	545.04027732216
scalar IntersectionExampleScenario.node[29].veinsmobility 	totalCO2Emission 	167.89103932117
scalar IntersectionExampleScenario.node[36].appl 	VehicleRemoved 	0
scalar IntersectionExampleScenario.node[36].appl 	ArrivedAtDest 	1
scalar IntersectionExampleScenario.node[36].appl 	IntersectionEnterTime 	137.25
scalar IntersectionExampleScenario.node[36].appl 	IntersectionExitTime 	160.82308966425
scalar IntersectionExampleScenario.node[36].appl 	NumberOfCollisions 	0
scalar IntersectionExampleScenario.node[36].nic.phy80211p 	busyTime 	0
scalar IntersectionExampleScenario.node[36].nic.mac1609_4 	ReceivedUnicastPackets 	0
scalar IntersectionExampleScenario.node[36].nic.mac1609_4 	ReceivedBroadcasts 	0
scalar IntersectionExampleScenario.node[36].nic.mac1609_4 	SentPackets 	0
scalar IntersectionExampleScenario.node[36].nic.mac1609_4 	SNIRLostPackets 	0
scalar IntersectionExampleScenario.node[36].nic.mac1609_4 	RXTXLostPackets 	0
scalar IntersectionExampleScenario.node[36].nic.mac1609_4 	TotalLostPackets 	0
scalar IntersectionExampleScenario.node[36].nic.mac1609_4 	DroppedPacketsInMac 	0
scalar IntersectionExampleScenario.node[36].nic.mac1609_4 	TooLittleTime 	0
scalar IntersectionExampleScenario.node[36].nic.mac1609_4 	TimesIntoBackoff 	0
scalar IntersectionExampleScenario.node[36].nic.mac1609_4 	SlotsBackoff 	0
scalar IntersectionExampleScenario.node[36].nic.mac1609_4 	NumInternalContention 	0
scalar IntersectionExampleScenario.node[36].nic.mac1609_4 	totalBusyTime 	0
scalar IntersectionExampleScenario.node[36].veinsmobility 	startTime 	137.25
scalar IntersectionExampleScenario.node[36].veinsmobility 	totalTime 	40
scalar IntersectionExampleScenario.node[36].veinsmobility 	stopTime 	177.5
scalar IntersectionExampleScenario.node[36].veinsmobility 	minSpeed 	5.6500000953674
scalar IntersectionExampleScenario.node[36].veinsmobility 	maxSpeed 	15.375
scalar IntersectionExampleScenario.node[36].veinsmobility 	totalDistance 	549.20303071026
scalar IntersectionExampleScenario.node[36].veinsmobility 	totalCO2Emission 	122.3254088012
scalar IntersectionExampleScenario.node[38].appl 	VehicleRemoved 	0
scalar IntersectionExampleScenario.node[38].appl 	ArrivedAtDest 	1
scalar IntersectionExampleScenario.node[38].appl 	IntersectionEnterTime 	139
scalar IntersectionExampleScenario.node[38].appl 	IntersectionExitTime 	163.08827759483
scalar IntersectionExampleScenario.node[38].appl 	NumberOfCollisions 	0
scalar IntersectionExampleScenario.node[38].nic.phy80211p 	busyTime 	0
scalar IntersectionExampleScenario.node[38].nic.mac1609_4 	ReceivedUnicastPackets 	0
scalar IntersectionExampleScenario.node[38].nic.mac1609_4 	ReceivedBroadcasts 	0
scalar IntersectionExampleScenario.node[38].nic.mac1609_4 	SentPackets 	0
scalar IntersectionExampleScenario.node[38].nic.mac1609_4 	SNIRLostPackets 	0
scalar IntersectionExampleScenario.node[38].nic.mac1609_4 	RXTXLostPackets 	0
scalar IntersectionExampleScenario.node[38].nic.mac1609_4 	TotalLostPackets 	0
scalar IntersectionExampleScenario.node[38].nic.mac1609_4 	DroppedPacketsInMac 	0
scalar IntersectionExampleScenario.node[38].nic.mac1609_4 	TooLittleTime 	0
scalar IntersectionExampleScenario.node[38].nic.mac1609_4 	TimesIntoBackoff 	0
scalar IntersectionExampleScenario.node[38].nic.mac1609_4 	SlotsBackoff 	0
scalar IntersectionExampleScenario.node[38].nic.mac1609_4 	NumInternalContention 	0
scalar IntersectionExampleScenario.node[38].nic.mac1609_4 	totalBusyTime 	0
scalar IntersectionExampleScenario.node[38].veinsmobility 	startTime 	139
scalar IntersectionExampleScenario.node[38].veinsmobility 	totalTime 	41.25
scalar IntersectionExampleScenario.node[38].veinsmobility 	stopTime 	180.5
scalar IntersectionExampleScenario.node[38].veinsmobility 	minSpeed 	5.6500000953674
scalar IntersectionExampleScenario.node[38].veinsmobility 	maxSpeed 	15.25
scalar IntersectionExampleScenario.node[38].veinsmobility 	totalDistance 	544.92889274248
scalar IntersectionExampleScenario.node[38].veinsmobility 	totalCO2Emission 	123.27490658231
scalar IntersectionExampleScenario.node[39].appl 	VehicleRemoved 	0
scalar IntersectionExampleScenario.node[39].appl 	ArrivedAtDest 	1
scalar IntersectionExampleScenario.node[39].appl 	IntersectionEnterTime 	139.75
scalar IntersectionExampleScenario.node[39].appl 	IntersectionExitTime 	164.86121095333
scalar IntersectionExampleScenario.node[39].appl 	NumberOfCollisions 	0
scalar IntersectionExampleScenario.node[39].nic.phy80211p 	busyTime 	0
scalar IntersectionExampleScenario.node[39].nic.mac1609_4 	ReceivedUnicastPackets 	0
scalar IntersectionExampleScenario.node[39].nic.mac1609_4 	ReceivedBroadcasts 	0
scalar IntersectionExampleScenario.node[39].nic.mac1609_4 	SentPackets 	0
scalar IntersectionExampleScenario.node[39].nic.mac1609_4 	SNIRLostPackets 	0
scalar IntersectionExampleScenario.node[39].nic.mac1609_4 	RXTXLostPackets 	0
scalar IntersectionExampleScenario.node[39].nic.mac1609_4 	TotalLostPackets 	0
scalar IntersectionExampleScenario.node[39].nic.mac1609_4 	DroppedPacketsInMac 	0
scalar IntersectionExampleScenario.node[39].nic.mac1609_4 	TooLittleTime 	0
scalar IntersectionExampleScenario.node[39].nic.mac1609_4 	TimesIntoBackoff 	0
scalar IntersectionExampleScenario.node[39].nic.mac1609_4 	SlotsBackoff 	0
scalar IntersectionExampleScenario.node[39].nic.mac1609_4 	NumInternalContention 	0
scalar IntersectionExampleScenario.node[39].nic.mac1609_4 	totalBusyTime 	0
scalar IntersectionExampleScenario.node[39].veinsmobility 	startTime 	139.75
scalar IntersectionExampleScenario.node[39].veinsmobility 	totalTime 	41.75
scalar IntersectionExampleScenario.node[39].veinsmobility 	stopTime 	181.75
scalar IntersectionExampleScenario.node[39].veinsmobility 	minSpeed 	5.6500000953674
scalar IntersectionExampleScenario.node[39].veinsmobility 	maxSpeed 	15.310690879822
scalar IntersectionExampleScenario.node[39].veinsmobility 	totalDistance 	564.18005413412
scalar IntersectionExampleScenario.node[39].veinsmobility 	totalCO2Emission 	126.77944804122
scalar IntersectionExampleScenario.node[33].appl 	VehicleRemoved 	0
scalar IntersectionExampleScenario.node[33].appl 	ArrivedAtDest 	1
scalar IntersectionExampleScenario.node[33].appl 	IntersectionEnterTime 	124
scalar IntersectionExampleScenario.node[33].appl 	IntersectionExitTime 	168.53515736587
scalar IntersectionExampleScenario.node[33].appl 	NumberOfCollisions 	0
scalar IntersectionExampleScenario.node[33].nic.phy80211p 	busyTime 	0
scalar IntersectionExampleScenario.node[33].nic.mac1609_4 	ReceivedUnicastPackets 	0
scalar IntersectionExampleScenario.node[33].nic.mac1609_4 	ReceivedBroadcasts 	0
scalar IntersectionExampleScenario.node[33].nic.mac1609_4 	SentPackets 	0
scalar IntersectionExampleScenario.node[33].nic.mac1609_4 	SNIRLostPackets 	0
scalar IntersectionExampleScenario.node[33].nic.mac1609_4 	RXTXLostPackets 	0
scalar IntersectionExampleScenario.node[33].nic.mac1609_4 	TotalLostPackets 	0
scalar IntersectionExampleScenario.node[33].nic.mac1609_4 	DroppedPacketsInMac 	0
scalar IntersectionExampleScenario.node[33].nic.mac1609_4 	TooLittleTime 	0
scalar IntersectionExampleScenario.node[33].nic.mac1609_4 	TimesIntoBackoff 	0
scalar IntersectionExampleScenario.node[33].nic.mac1609_4 	SlotsBackoff 	0
scalar IntersectionExampleScenario.node[33].nic.mac1609_4 	NumInternalContention 	0
scalar IntersectionExampleScenario.node[33].nic.mac1609_4 	totalBusyTime 	0
scalar IntersectionExampleScenario.node[33].veinsmobility 	startTime 	124
scalar IntersectionExampleScenario.node[33].veinsmobility 	totalTime 	61.75
scalar IntersectionExampleScenario.node[33].veinsmobility 	stopTime 	186
scalar IntersectionExampleScenario.node[33].veinsmobility 	minSpeed 	0
scalar IntersectionExampleScenario.node[33].veinsmobility 	maxSpeed 	15.02499961853
scalar IntersectionExampleScenario.node[33].veinsmobility 	totalDistance 	543.13827420623
scalar IntersectionExampleScenario.node[33].veinsmobility 	totalCO2Emission 	148.33586469783
scalar IntersectionExampleScenario.node[34].appl 	VehicleRemoved 	0
scalar IntersectionExampleScenario.node[34].appl 	ArrivedAtDest 	1
scalar IntersectionExampleScenario.node[34].appl 	IntersectionEnterTime 	130.25
scalar IntersectionExampleScenario.node[34].appl 	IntersectionExitTime 	171.0127485616
scalar IntersectionExampleScenario.node[34].appl 	NumberOfCollisions 	0
scalar IntersectionExampleScenario.node[34].nic.phy80211p 	busyTime 	0
scalar IntersectionExampleScenario.node[34].nic.mac1609_4 	ReceivedUnicastPackets 	0
scalar IntersectionExampleScenario.node[34].nic.mac1609_4 	ReceivedBroadcasts 	0
scalar IntersectionExampleScenario.node[34].nic.mac1609_4 	SentPackets 	0
scalar IntersectionExampleScenario.node[34].nic.mac1609_4 	SNIRLostPackets 	0
scalar IntersectionExampleScenario.node[34].nic.mac1609_4 	RXTXLostPackets 	0
scalar IntersectionExampleScenario.node[34].nic.mac1609_4 	TotalLostPackets 	0
scalar IntersectionExampleScenario.node[34].nic.mac1609_4 	DroppedPacketsInMac 	0
scalar IntersectionExampleScenario.node[34].nic.mac1609_4 	TooLittleTime 	0
scalar IntersectionExampleScenario.node[34].nic.mac1609_4 	TimesIntoBackoff 	0
scalar IntersectionExampleScenario.node[34].nic.mac1609_4 	SlotsBackoff 	0
scalar IntersectionExampleScenario.node[34].nic.mac1609_4 	NumInternalContention 	0
scalar IntersectionExampleScenario.node[34].nic.mac1609_4 	totalBusyTime 	0
scalar IntersectionExampleScenario.node[34].veinsmobility 	startTime 	130.25
scalar IntersectionExampleScenario.node[34].veinsmobility 	totalTime 	58
scalar IntersectionExampleScenario.node[34].veinsmobility 	stopTime 	188.5
scalar IntersectionExampleScenario.node[34].veinsmobility 	minSpeed 	0
scalar IntersectionExampleScenario.node[34].veinsmobility 	maxSpeed 	15.02499961853
scalar IntersectionExampleScenario.node[34].veinsmobility 	totalDistance 	545.7172088912
scalar IntersectionExampleScenario.node[34].veinsmobility 	totalCO2Emission 	142.74321888889
scalar IntersectionExampleScenario.node[35].appl 	VehicleRemoved 	0
scalar IntersectionExampleScenario.node[35].appl 	ArrivedAtDest 	1
scalar IntersectionExampleScenario.node[35].appl 	IntersectionEnterTime 	135.25
scalar IntersectionExampleScenario.node[35].appl 	IntersectionExitTime 	173.3447690341
scalar IntersectionExampleScenario.node[35].appl 	NumberOfCollisions 	0
scalar IntersectionExampleScenario.node[35].nic.phy80211p 	busyTime 	0
scalar IntersectionExampleScenario.node[35].nic.mac1609_4 	ReceivedUnicastPackets 	0
scalar IntersectionExampleScenario.node[35].nic.mac1609_4 	ReceivedBroadcasts 	0
scalar IntersectionExampleScenario.node[35].nic.mac1609_4 	SentPackets 	0
scalar IntersectionExampleScenario.node[35].nic.mac1609_4 	SNIRLostPackets 	0
scalar IntersectionExampleScenario.node[35].nic.mac1609_4 	RXTXLostPackets 	0
scalar IntersectionExampleScenario.node[35].nic.mac1609_4 	TotalLostPackets 	0
scalar IntersectionExampleScenario.node[35].nic.mac1609_4 	DroppedPacketsInMac 	0
scalar IntersectionExampleScenario.node[35].nic.mac1609_4 	TooLittleTime 	0
scalar IntersectionExampleScenario.node[35].nic.mac1609_4 	TimesIntoBackoff 	0
scalar IntersectionExampleScenario.node[35].nic.mac1609_4 	SlotsBackoff 	0
scalar IntersectionExampleScenario.node[35].nic.mac1609_4 	NumInternalContention 	0
scalar IntersectionExampleScenario.node[35].nic.mac1609_4 	totalBusyTime 	0
scalar IntersectionExampleScenario.node[35].veinsmobility 	startTime 	135.25
scalar IntersectionExampleScenario.node[35].veinsmobility 	totalTime 	54.25
scalar IntersectionExampleScenario.node[35].veinsmobility 	stopTime 	189.75
scalar IntersectionExampleScenario.node[35].veinsmobility 	minSpeed 	0
scalar IntersectionExampleScenario.node[35].veinsmobility 	maxSpeed 	15.5
scalar IntersectionExampleScenario.node[35].veinsmobility 	totalDistance 	551.68741607666
scalar IntersectionExampleScenario.node[35].veinsmobility 	totalCO2Emission 	141.47797541293
scalar IntersectionExampleScenario.node[37].appl 	VehicleRemoved 	0
scalar IntersectionExampleScenario.node[37].appl 	ArrivedAtDest 	1
scalar IntersectionExampleScenario.node[37].appl 	IntersectionEnterTime 	138.25
scalar IntersectionExampleScenario.node[37].appl 	IntersectionExitTime 	175.77162022842
scalar IntersectionExampleScenario.node[37].appl 	NumberOfCollisions 	0
scalar IntersectionExampleScenario.node[37].nic.phy80211p 	busyTime 	0
scalar IntersectionExampleScenario.node[37].nic.mac1609_4 	ReceivedUnicastPackets 	0
scalar IntersectionExampleScenario.node[37].nic.mac1609_4 	ReceivedBroadcasts 	0
scalar IntersectionExampleScenario.node[37].nic.mac1609_4 	SentPackets 	0
scalar IntersectionExampleScenario.node[37].nic.mac1609_4 	SNIRLostPackets 	0
scalar IntersectionExampleScenario.node[37].nic.mac1609_4 	RXTXLostPackets 	0
scalar IntersectionExampleScenario.node[37].nic.mac1609_4 	TotalLostPackets 	0
scalar IntersectionExampleScenario.node[37].nic.mac1609_4 	DroppedPacketsInMac 	0
scalar IntersectionExampleScenario.node[37].nic.mac1609_4 	TooLittleTime 	0
scalar IntersectionExampleScenario.node[37].nic.mac1609_4 	TimesIntoBackoff 	0
scalar IntersectionExampleScenario.node[37].nic.mac1609_4 	SlotsBackoff 	0
[...]
scalar IntersectionExampleScenario.node[571].veinsmobility 	totalDistance 	306.65780639648
scalar IntersectionExampleScenario.node[571].veinsmobility 	totalCO2Emission 	98.228828001445
scalar IntersectionExampleScenario.node[572].appl 	VehicleRemoved 	0
scalar IntersectionExampleScenario.node[572].appl 	ArrivedAtDest 	0
scalar IntersectionExampleScenario.node[572].appl 	IntersectionEnterTime 	1762.75
scalar IntersectionExampleScenario.node[572].appl 	IntersectionExitTime 	1796.60282204
scalar IntersectionExampleScenario.node[572].appl 	NumberOfCollisions 	0
scalar IntersectionExampleScenario.node[572].nic.phy80211p 	busyTime 	0
scalar IntersectionExampleScenario.node[572].nic.mac1609_4 	ReceivedUnicastPackets 	0
scalar IntersectionExampleScenario.node[572].nic.mac1609_4 	ReceivedBroadcasts 	0
scalar IntersectionExampleScenario.node[572].nic.mac1609_4 	SentPackets 	0
scalar IntersectionExampleScenario.node[572].nic.mac1609_4 	SNIRLostPackets 	0
scalar IntersectionExampleScenario.node[572].nic.mac1609_4 	RXTXLostPackets 	0
scalar IntersectionExampleScenario.node[572].nic.mac1609_4 	TotalLostPackets 	0
scalar IntersectionExampleScenario.node[572].nic.mac1609_4 	DroppedPacketsInMac 	0
scalar IntersectionExampleScenario.node[572].nic.mac1609_4 	TooLittleTime 	0
scalar IntersectionExampleScenario.node[572].nic.mac1609_4 	TimesIntoBackoff 	0
scalar IntersectionExampleScenario.node[572].nic.mac1609_4 	SlotsBackoff 	0
scalar IntersectionExampleScenario.node[572].nic.mac1609_4 	NumInternalContention 	0
scalar IntersectionExampleScenario.node[572].nic.mac1609_4 	totalBusyTime 	0
scalar IntersectionExampleScenario.node[572].veinsmobility 	startTime 	1762.75
scalar IntersectionExampleScenario.node[572].veinsmobility 	totalTime 	37.25
scalar IntersectionExampleScenario.node[572].veinsmobility 	stopTime 	1800
scalar IntersectionExampleScenario.node[572].veinsmobility 	minSpeed 	2.3995232582092
scalar IntersectionExampleScenario.node[572].veinsmobility 	maxSpeed 	15.02499961853
scalar IntersectionExampleScenario.node[572].veinsmobility 	totalDistance 	361.16394805908
scalar IntersectionExampleScenario.node[572].veinsmobility 	totalCO2Emission 	106.36170055003
scalar IntersectionExampleScenario.node[573].appl 	VehicleRemoved 	0
scalar IntersectionExampleScenario.node[573].appl 	ArrivedAtDest 	0
scalar IntersectionExampleScenario.node[573].appl 	IntersectionEnterTime 	1765.5
scalar IntersectionExampleScenario.node[573].appl 	IntersectionExitTime 	-1
scalar IntersectionExampleScenario.node[573].appl 	NumberOfCollisions 	0
scalar IntersectionExampleScenario.node[573].nic.phy80211p 	busyTime 	0
scalar IntersectionExampleScenario.node[573].nic.mac1609_4 	ReceivedUnicastPackets 	0
scalar IntersectionExampleScenario.node[573].nic.mac1609_4 	ReceivedBroadcasts 	0
scalar IntersectionExampleScenario.node[573].nic.mac1609_4 	SentPackets 	0
scalar IntersectionExampleScenario.node[573].nic.mac1609_4 	SNIRLostPackets 	0
scalar IntersectionExampleScenario.node[573].nic.mac1609_4 	RXTXLostPackets 	0
scalar IntersectionExampleScenario.node[573].nic.mac1609_4 	TotalLostPackets 	0
scalar IntersectionExampleScenario.node[573].nic.mac1609_4 	DroppedPacketsInMac 	0
scalar IntersectionExampleScenario.node[573].nic.mac1609_4 	TooLittleTime 	0
scalar IntersectionExampleScenario.node[573].nic.mac1609_4 	TimesIntoBackoff 	0
scalar IntersectionExampleScenario.node[573].nic.mac1609_4 	SlotsBackoff 	0
scalar IntersectionExampleScenario.node[573].nic.mac1609_4 	NumInternalContention 	0
scalar IntersectionExampleScenario.node[573].nic.mac1609_4 	totalBusyTime 	0
scalar IntersectionExampleScenario.node[573].veinsmobility 	startTime 	1765.5
scalar IntersectionExampleScenario.node[573].veinsmobility 	totalTime 	34.5
scalar IntersectionExampleScenario.node[573].veinsmobility 	stopTime 	1800
scalar IntersectionExampleScenario.node[573].veinsmobility 	minSpeed 	0
scalar IntersectionExampleScenario.node[573].veinsmobility 	maxSpeed 	14.39999961853
scalar IntersectionExampleScenario.node[573].veinsmobility 	totalDistance 	280.90826416016
scalar IntersectionExampleScenario.node[573].veinsmobility 	totalCO2Emission 	76.390459308293
scalar IntersectionExampleScenario.node[574].appl 	VehicleRemoved 	0
scalar IntersectionExampleScenario.node[574].appl 	ArrivedAtDest 	0
scalar IntersectionExampleScenario.node[574].appl 	IntersectionEnterTime 	1766.75
scalar IntersectionExampleScenario.node[574].appl 	IntersectionExitTime 	-1
scalar IntersectionExampleScenario.node[574].appl 	NumberOfCollisions 	0
scalar IntersectionExampleScenario.node[574].nic.phy80211p 	busyTime 	0
scalar IntersectionExampleScenario.node[574].nic.mac1609_4 	ReceivedUnicastPackets 	0
scalar IntersectionExampleScenario.node[574].nic.mac1609_4 	ReceivedBroadcasts 	0
scalar IntersectionExampleScenario.node[574].nic.mac1609_4 	SentPackets 	0
scalar IntersectionExampleScenario.node[574].nic.mac1609_4 	SNIRLostPackets 	0
scalar IntersectionExampleScenario.node[574].nic.mac1609_4 	RXTXLostPackets 	0
scalar IntersectionExampleScenario.node[574].nic.mac1609_4 	TotalLostPackets 	0
scalar IntersectionExampleScenario.node[574].nic.mac1609_4 	DroppedPacketsInMac 	0
scalar IntersectionExampleScenario.node[574].nic.mac1609_4 	TooLittleTime 	0
scalar IntersectionExampleScenario.node[574].nic.mac1609_4 	TimesIntoBackoff 	0
scalar IntersectionExampleScenario.node[574].nic.mac1609_4 	SlotsBackoff 	0
scalar IntersectionExampleScenario.node[574].nic.mac1609_4 	NumInternalContention 	0
scalar IntersectionExampleScenario.node[574].nic.mac1609_4 	totalBusyTime 	0
scalar IntersectionExampleScenario.node[574].veinsmobility 	startTime 	1766.75
scalar IntersectionExampleScenario.node[574].veinsmobility 	totalTime 	33.25
scalar IntersectionExampleScenario.node[574].veinsmobility 	stopTime 	1800
scalar IntersectionExampleScenario.node[574].veinsmobility 	minSpeed 	0
scalar IntersectionExampleScenario.node[574].veinsmobility 	maxSpeed 	15.63510799408
scalar IntersectionExampleScenario.node[574].veinsmobility 	totalDistance 	294.6354675293
scalar IntersectionExampleScenario.node[574].veinsmobility 	totalCO2Emission 	80.083867765338
scalar IntersectionExampleScenario.node[575].appl 	VehicleRemoved 	0
scalar IntersectionExampleScenario.node[575].appl 	ArrivedAtDest 	0
scalar IntersectionExampleScenario.node[575].appl 	IntersectionEnterTime 	1769.5
scalar IntersectionExampleScenario.node[575].appl 	IntersectionExitTime 	-1
scalar IntersectionExampleScenario.node[575].appl 	NumberOfCollisions 	0
scalar IntersectionExampleScenario.node[575].nic.phy80211p 	busyTime 	0
scalar IntersectionExampleScenario.node[575].nic.mac1609_4 	ReceivedUnicastPackets 	0
scalar IntersectionExampleScenario.node[575].nic.mac1609_4 	ReceivedBroadcasts 	0
scalar IntersectionExampleScenario.node[575].nic.mac1609_4 	SentPackets 	0
scalar IntersectionExampleScenario.node[575].nic.mac1609_4 	SNIRLostPackets 	0
scalar IntersectionExampleScenario.node[575].nic.mac1609_4 	RXTXLostPackets 	0
scalar IntersectionExampleScenario.node[575].nic.mac1609_4 	TotalLostPackets 	0
scalar IntersectionExampleScenario.node[575].nic.mac1609_4 	DroppedPacketsInMac 	0
scalar IntersectionExampleScenario.node[575].nic.mac1609_4 	TooLittleTime 	0
scalar IntersectionExampleScenario.node[575].nic.mac1609_4 	TimesIntoBackoff 	0
scalar IntersectionExampleScenario.node[575].nic.mac1609_4 	SlotsBackoff 	0
scalar IntersectionExampleScenario.node[575].nic.mac1609_4 	NumInternalContention 	0
scalar IntersectionExampleScenario.node[575].nic.mac1609_4 	totalBusyTime 	0
scalar IntersectionExampleScenario.node[575].veinsmobility 	startTime 	1769.5
scalar IntersectionExampleScenario.node[575].veinsmobility 	totalTime 	30.5
scalar IntersectionExampleScenario.node[575].veinsmobility 	stopTime 	1800
scalar IntersectionExampleScenario.node[575].veinsmobility 	minSpeed 	0
scalar IntersectionExampleScenario.node[575].veinsmobility 	maxSpeed 	14.39999961853
scalar IntersectionExampleScenario.node[575].veinsmobility 	totalDistance 	279.47564697266
scalar IntersectionExampleScenario.node[575].veinsmobility 	totalCO2Emission 	66.071115860675
scalar IntersectionExampleScenario.node[576].appl 	VehicleRemoved 	0
scalar IntersectionExampleScenario.node[576].appl 	ArrivedAtDest 	0
scalar IntersectionExampleScenario.node[576].appl 	IntersectionEnterTime 	1778.5
scalar IntersectionExampleScenario.node[576].appl 	IntersectionExitTime 	-1
scalar IntersectionExampleScenario.node[576].appl 	NumberOfCollisions 	0
scalar IntersectionExampleScenario.node[576].nic.phy80211p 	busyTime 	0
scalar IntersectionExampleScenario.node[576].nic.mac1609_4 	ReceivedUnicastPackets 	0
scalar IntersectionExampleScenario.node[576].nic.mac1609_4 	ReceivedBroadcasts 	0
scalar IntersectionExampleScenario.node[576].nic.mac1609_4 	SentPackets 	0
scalar IntersectionExampleScenario.node[576].nic.mac1609_4 	SNIRLostPackets 	0
scalar IntersectionExampleScenario.node[576].nic.mac1609_4 	RXTXLostPackets 	0
scalar IntersectionExampleScenario.node[576].nic.mac1609_4 	TotalLostPackets 	0
scalar IntersectionExampleScenario.node[576].nic.mac1609_4 	DroppedPacketsInMac 	0
scalar IntersectionExampleScenario.node[576].nic.mac1609_4 	TooLittleTime 	0
scalar IntersectionExampleScenario.node[576].nic.mac1609_4 	TimesIntoBackoff 	0
scalar IntersectionExampleScenario.node[576].nic.mac1609_4 	SlotsBackoff 	0
scalar IntersectionExampleScenario.node[576].nic.mac1609_4 	NumInternalContention 	0
scalar IntersectionExampleScenario.node[576].nic.mac1609_4 	totalBusyTime 	0
scalar IntersectionExampleScenario.node[576].veinsmobility 	startTime 	1778.5
scalar IntersectionExampleScenario.node[576].veinsmobility 	totalTime 	21.5
scalar IntersectionExampleScenario.node[576].veinsmobility 	stopTime 	1800
scalar IntersectionExampleScenario.node[576].veinsmobility 	minSpeed 	5.4710731506348
scalar IntersectionExampleScenario.node[576].veinsmobility 	maxSpeed 	15.02499961853
scalar IntersectionExampleScenario.node[576].veinsmobility 	totalDistance 	283.26737213135
scalar IntersectionExampleScenario.node[576].veinsmobility 	totalCO2Emission 	62.825721364799
scalar IntersectionExampleScenario.node[577].appl 	VehicleRemoved 	0
scalar IntersectionExampleScenario.node[577].appl 	ArrivedAtDest 	0
scalar IntersectionExampleScenario.node[577].appl 	IntersectionEnterTime 	1782
scalar IntersectionExampleScenario.node[577].appl 	IntersectionExitTime 	-1
scalar IntersectionExampleScenario.node[577].appl 	NumberOfCollisions 	0
scalar IntersectionExampleScenario.node[577].nic.phy80211p 	busyTime 	0
scalar IntersectionExampleScenario.node[577].nic.mac1609_4 	ReceivedUnicastPackets 	0
scalar IntersectionExampleScenario.node[577].nic.mac1609_4 	ReceivedBroadcasts 	0
scalar IntersectionExampleScenario.node[577].nic.mac1609_4 	SentPackets 	0
scalar IntersectionExampleScenario.node[577].nic.mac1609_4 	SNIRLostPackets 	0
scalar IntersectionExampleScenario.node[577].nic.mac1609_4 	RXTXLostPackets 	0
scalar IntersectionExampleScenario.node[577].nic.mac1609_4 	TotalLostPackets 	0
scalar IntersectionExampleScenario.node[577].nic.mac1609_4 	DroppedPacketsInMac 	0
scalar IntersectionExampleScenario.node[577].nic.mac1609_4 	TooLittleTime 	0
scalar IntersectionExampleScenario.node[577].nic.mac1609_4 	TimesIntoBackoff 	0
scalar IntersectionExampleScenario.node[577].nic.mac1609_4 	SlotsBackoff 	0
scalar IntersectionExampleScenario.node[577].nic.mac1609_4 	NumInternalContention 	0
scalar IntersectionExampleScenario.node[577].nic.mac1609_4 	totalBusyTime 	0
scalar IntersectionExampleScenario.node[577].veinsmobility 	startTime 	1782
scalar IntersectionExampleScenario.node[577].veinsmobility 	totalTime 	18
scalar IntersectionExampleScenario.node[577].veinsmobility 	stopTime 	1800
scalar IntersectionExampleScenario.node[577].veinsmobility 	minSpeed 	5.6500000953674
scalar IntersectionExampleScenario.node[577].veinsmobility 	maxSpeed 	15.02499961853
scalar IntersectionExampleScenario.node[577].veinsmobility 	totalDistance 	248.76006317139
scalar IntersectionExampleScenario.node[577].veinsmobility 	totalCO2Emission 	58.627483391561
scalar IntersectionExampleScenario.node[578].appl 	VehicleRemoved 	0
scalar IntersectionExampleScenario.node[578].appl 	ArrivedAtDest 	0
scalar IntersectionExampleScenario.node[578].appl 	IntersectionEnterTime 	1784.5
scalar IntersectionExampleScenario.node[578].appl 	IntersectionExitTime 	-1
scalar IntersectionExampleScenario.node[578].appl 	NumberOfCollisions 	0
scalar IntersectionExampleScenario.node[578].nic.phy80211p 	busyTime 	0
scalar IntersectionExampleScenario.node[578].nic.mac1609_4 	ReceivedUnicastPackets 	0
scalar IntersectionExampleScenario.node[578].nic.mac1609_4 	ReceivedBroadcasts 	0
scalar IntersectionExampleScenario.node[578].nic.mac1609_4 	SentPackets 	0
scalar IntersectionExampleScenario.node[578].nic.mac1609_4 	SNIRLostPackets 	0
scalar IntersectionExampleScenario.node[578].nic.mac1609_4 	RXTXLostPackets 	0
scalar IntersectionExampleScenario.node[578].nic.mac1609_4 	TotalLostPackets 	0
scalar IntersectionExampleScenario.node[578].nic.mac1609_4 	DroppedPacketsInMac 	0
scalar IntersectionExampleScenario.node[578].nic.mac1609_4 	TooLittleTime 	0
scalar IntersectionExampleScenario.node[578].nic.mac1609_4 	TimesIntoBackoff 	0
scalar IntersectionExampleScenario.node[578].nic.mac1609_4 	SlotsBackoff 	0
scalar IntersectionExampleScenario.node[578].nic.mac1609_4 	NumInternalContention 	0
scalar IntersectionExampleScenario.node[578].nic.mac1609_4 	totalBusyTime 	0
scalar IntersectionExampleScenario.node[578].veinsmobility 	startTime 	1784.5
scalar IntersectionExampleScenario.node[578].veinsmobility 	totalTime 	15.5
scalar IntersectionExampleScenario.node[578].veinsmobility 	stopTime 	1800
scalar IntersectionExampleScenario.node[578].veinsmobility 	minSpeed 	5.6500000953674
scalar IntersectionExampleScenario.node[578].veinsmobility 	maxSpeed 	15.64999961853
scalar IntersectionExampleScenario.node[578].veinsmobility 	totalDistance 	208.72607421875
scalar IntersectionExampleScenario.node[578].veinsmobility 	totalCO2Emission 	53.515597654347
scalar IntersectionExampleScenario.node[579].appl 	VehicleRemoved 	0
scalar IntersectionExampleScenario.node[579].appl 	ArrivedAtDest 	0
scalar IntersectionExampleScenario.node[579].appl 	IntersectionEnterTime 	1785.75
scalar IntersectionExampleScenario.node[579].appl 	IntersectionExitTime 	-1
scalar IntersectionExampleScenario.node[579].appl 	NumberOfCollisions 	0
scalar IntersectionExampleScenario.node[579].nic.phy80211p 	busyTime 	0
scalar IntersectionExampleScenario.node[579].nic.mac1609_4 	ReceivedUnicastPackets 	0
scalar IntersectionExampleScenario.node[579].nic.mac1609_4 	ReceivedBroadcasts 	0
scalar IntersectionExampleScenario.node[579].nic.mac1609_4 	SentPackets 	0
scalar IntersectionExampleScenario.node[579].nic.mac1609_4 	SNIRLostPackets 	0
scalar IntersectionExampleScenario.node[579].nic.mac1609_4 	RXTXLostPackets 	0
scalar IntersectionExampleScenario.node[579].nic.mac1609_4 	TotalLostPackets 	0
scalar IntersectionExampleScenario.node[579].nic.mac1609_4 	DroppedPacketsInMac 	0
scalar IntersectionExampleScenario.node[579].nic.mac1609_4 	TooLittleTime 	0
scalar IntersectionExampleScenario.node[579].nic.mac1609_4 	TimesIntoBackoff 	0
scalar IntersectionExampleScenario.node[579].nic.mac1609_4 	SlotsBackoff 	0
scalar IntersectionExampleScenario.node[579].nic.mac1609_4 	NumInternalContention 	0
scalar IntersectionExampleScenario.node[579].nic.mac1609_4 	totalBusyTime 	0
scalar IntersectionExampleScenario.node[579].veinsmobility 	startTime 	1785.75
scalar IntersectionExampleScenario.node[579].veinsmobility 	totalTime 	14.25
scalar IntersectionExampleScenario.node[579].veinsmobility 	stopTime 	1800
scalar IntersectionExampleScenario.node[579].veinsmobility 	minSpeed 	5.6500000953674
scalar IntersectionExampleScenario.node[579].veinsmobility 	maxSpeed 	14.873069763184
scalar IntersectionExampleScenario.node[579].veinsmobility 	totalDistance 	190.76550292969
scalar IntersectionExampleScenario.node[579].veinsmobility 	totalCO2Emission 	53.030488322493
scalar IntersectionExampleScenario.node[580].appl 	VehicleRemoved 	0
scalar IntersectionExampleScenario.node[580].appl 	ArrivedAtDest 	0
scalar IntersectionExampleScenario.node[580].appl 	IntersectionEnterTime 	1787.25
scalar IntersectionExampleScenario.node[580].appl 	IntersectionExitTime 	-1
scalar IntersectionExampleScenario.node[580].appl 	NumberOfCollisions 	0
scalar IntersectionExampleScenario.node[580].nic.phy80211p 	busyTime 	0
scalar IntersectionExampleScenario.node[580].nic.mac1609_4 	ReceivedUnicastPackets 	0
scalar IntersectionExampleScenario.node[580].nic.mac1609_4 	ReceivedBroadcasts 	0
scalar IntersectionExampleScenario.node[580].nic.mac1609_4 	SentPackets 	0
scalar IntersectionExampleScenario.node[580].nic.mac1609_4 	SNIRLostPackets 	0
scalar IntersectionExampleScenario.node[580].nic.mac1609_4 	RXTXLostPackets 	0
scalar IntersectionExampleScenario.node[580].nic.mac1609_4 	TotalLostPackets 	0
scalar IntersectionExampleScenario.node[580].nic.mac1609_4 	DroppedPacketsInMac 	0
scalar IntersectionExampleScenario.node[580].nic.mac1609_4 	TooLittleTime 	0
scalar IntersectionExampleScenario.node[580].nic.mac1609_4 	TimesIntoBackoff 	0
scalar IntersectionExampleScenario.node[580].nic.mac1609_4 	SlotsBackoff 	0
scalar IntersectionExampleScenario.node[580].nic.mac1609_4 	NumInternalContention 	0
scalar IntersectionExampleScenario.node[580].nic.mac1609_4 	totalBusyTime 	0
scalar IntersectionExampleScenario.node[580].veinsmobility 	startTime 	1787.25
scalar IntersectionExampleScenario.node[580].veinsmobility 	totalTime 	12.75
scalar IntersectionExampleScenario.node[580].veinsmobility 	stopTime 	1800
scalar IntersectionExampleScenario.node[580].veinsmobility 	minSpeed 	5.6500000953674
scalar IntersectionExampleScenario.node[580].veinsmobility 	maxSpeed 	16.019826889038
scalar IntersectionExampleScenario.node[580].veinsmobility 	totalDistance 	178.30265045166
scalar IntersectionExampleScenario.node[580].veinsmobility 	totalCO2Emission 	53.716008964043
scalar IntersectionExampleScenario.node[581].appl 	VehicleRemoved 	0
scalar IntersectionExampleScenario.node[581].appl 	ArrivedAtDest 	0
scalar IntersectionExampleScenario.node[581].appl 	IntersectionEnterTime 	1799.75
scalar IntersectionExampleScenario.node[581].appl 	IntersectionExitTime 	-1
scalar IntersectionExampleScenario.node[581].appl 	NumberOfCollisions 	0
scalar IntersectionExampleScenario.node[581].nic.phy80211p 	busyTime 	0
scalar IntersectionExampleScenario.node[581].nic.mac1609_4 	ReceivedUnicastPackets 	0
scalar IntersectionExampleScenario.node[581].nic.mac1609_4 	ReceivedBroadcasts 	0
scalar IntersectionExampleScenario.node[581].nic.mac1609_4 	SentPackets 	0
scalar IntersectionExampleScenario.node[581].nic.mac1609_4 	SNIRLostPackets 	0
scalar IntersectionExampleScenario.node[581].nic.mac1609_4 	RXTXLostPackets 	0
scalar IntersectionExampleScenario.node[581].nic.mac1609_4 	TotalLostPackets 	0
scalar IntersectionExampleScenario.node[581].nic.mac1609_4 	DroppedPacketsInMac 	0
scalar IntersectionExampleScenario.node[581].nic.mac1609_4 	TooLittleTime 	0
scalar IntersectionExampleScenario.node[581].nic.mac1609_4 	TimesIntoBackoff 	0
scalar IntersectionExampleScenario.node[581].nic.mac1609_4 	SlotsBackoff 	0
scalar IntersectionExampleScenario.node[581].nic.mac1609_4 	NumInternalContention 	0
scalar IntersectionExampleScenario.node[581].nic.mac1609_4 	totalBusyTime 	0
scalar IntersectionExampleScenario.node[581].veinsmobility 	startTime 	1799.75
scalar IntersectionExampleScenario.node[581].veinsmobility 	totalTime 	0.25
scalar IntersectionExampleScenario.node[581].veinsmobility 	stopTime 	1800
scalar IntersectionExampleScenario.node[581].veinsmobility 	minSpeed 	5.6500000953674
scalar IntersectionExampleScenario.node[581].veinsmobility 	maxSpeed 	5.6500000953674
scalar IntersectionExampleScenario.node[581].veinsmobility 	totalDistance 	1.3343734741211
scalar IntersectionExampleScenario.node[581].veinsmobility 	totalCO2Emission 	0
