version 2
run nodebug-38-20200606-00:48:02-5072
attr configname nodebug
attr datetime 20200606-00:48:02
attr experiment nodebug
attr inifile omnetpp.ini
attr iterationvars ""
attr iterationvars2 $repetition=38
attr measurement ""
attr network "\"org.car2x.veins.modules.application.ExtTraCIScenarioManagerLaunchd.IntersectionExampleScenario\""
attr processid 5072
attr repetition 38
attr replication #38
attr resultdir results
attr runnumber 38
attr seedset 38
param **.coreDebug false
param **.debug false
param *.**.nic.mac1609_4.bitrate 18Mbps
param *.**.nic.mac1609_4.txPower 20mW
param *.**.nic.mac1609_4.useServiceChannel false
param *.**.nic.phy80211p.analogueModels "xmldoc(\"config.xml\")"
param *.**.nic.phy80211p.decider "xmldoc(\"config.xml\")"
param *.**.nic.phy80211p.sensitivity -89dBm
param *.**.nic.phy80211p.thermalNoise -110dBm
param *.**.nic.phy80211p.usePropagationDelay true
param *.**.nic.phy80211p.useThermalNoise true
param *.annotations.draw false
param *.connectionManager.alpha 2.0
param *.connectionManager.carrierFrequency "5.890e9 Hz"
param *.connectionManager.pMax 20mW
param *.connectionManager.sat -89dBm
param *.connectionManager.sendDirect true
param *.manager.autoShutdown true
param *.manager.host "\"localhost\""
param *.manager.launchConfig "xmldoc(\"paramics.launchd.xml\")"
param *.manager.margin 25
param *.manager.moduleDisplayString "\"\""
param *.manager.moduleName "\"node\""
param *.manager.moduleType "\"org.car2x.veins.nodes.Car\""
param *.manager.port 9999
param *.manager.updateInterval 250ms
param *.node[*0].veinsmobility.accidentCount 0
param *.node[*0].veinsmobility.accidentDuration 30s
param *.node[*0].veinsmobility.accidentStart 75s
param *.node[*].appl.LiderSelectZoneRadio 55.0
param *.node[*].appl.ShareDataZoneRadio 110.0
param *.node[*].appl.TiempoSemaforo 30.0
param *.node[*].appl.beaconInterval 1s
param *.node[*].appl.beaconPriority 3
param *.node[*].appl.dataOnSch false
param *.node[*].appl.dataPriority 2
param *.node[*].appl.debug false
param *.node[*].appl.headerLength "256 bit"
param *.node[*].appl.maxOffset 0.005s
param *.node[*].appl.sendBeacons false
param *.node[*].appl.sendData true
param *.node[*].applType "\"Dummy\""
param *.node[*].mobilityType "\"TraCIMobility\""
param *.node[*].mobilityType.debug true
param *.node[*].veinsmobility.x 0
param *.node[*].veinsmobility.y 0
param *.node[*].veinsmobility.z 1.895
param *.node[*].veinsmobilityType "\"org.car2x.veins.modules.mobility.traci.TraCIMobility\""
param *.node[*].veinsmobilityType.debug true
param *.playgroundSizeX 8500m
param *.playgroundSizeY 8500m
param *.playgroundSizeZ 50m
param *.world.use2D false
param *.world.useTorus false

scalar IntersectionExampleScenario.node[0].appl 	VehicleRemoved 	0
scalar IntersectionExampleScenario.node[0].appl 	ArrivedAtDest 	1
scalar IntersectionExampleScenario.node[0].appl 	IntersectionEnterTime 	8.75
scalar IntersectionExampleScenario.node[0].appl 	IntersectionExitTime 	33.587853111385
scalar IntersectionExampleScenario.node[0].appl 	NumberOfCollisions 	0
scalar IntersectionExampleScenario.node[0].nic.phy80211p 	busyTime 	0
scalar IntersectionExampleScenario.node[0].nic.mac1609_4 	ReceivedUnicastPackets 	0
scalar IntersectionExampleScenario.node[0].nic.mac1609_4 	ReceivedBroadcasts 	0
scalar IntersectionExampleScenario.node[0].nic.mac1609_4 	SentPackets 	0
scalar IntersectionExampleScenario.node[0].nic.mac1609_4 	SNIRLostPackets 	0
scalar IntersectionExampleScenario.node[0].nic.mac1609_4 	RXTXLostPackets 	0
scalar IntersectionExampleScenario.node[0].nic.mac1609_4 	TotalLostPackets 	0
scalar IntersectionExampleScenario.node[0].nic.mac1609_4 	DroppedPacketsInMac 	0
scalar IntersectionExampleScenario.node[0].nic.mac1609_4 	TooLittleTime 	0
scalar IntersectionExampleScenario.node[0].nic.mac1609_4 	TimesIntoBackoff 	0
scalar IntersectionExampleScenario.node[0].nic.mac1609_4 	SlotsBackoff 	0
scalar IntersectionExampleScenario.node[0].nic.mac1609_4 	NumInternalContention 	0
scalar IntersectionExampleScenario.node[0].nic.mac1609_4 	totalBusyTime 	0
scalar IntersectionExampleScenario.node[0].veinsmobility 	startTime 	8.75
scalar IntersectionExampleScenario.node[0].veinsmobility 	totalTime 	40.75
scalar IntersectionExampleScenario.node[0].veinsmobility 	stopTime 	49.75
scalar IntersectionExampleScenario.node[0].veinsmobility 	minSpeed 	4.5366592407227
scalar IntersectionExampleScenario.node[0].veinsmobility 	maxSpeed 	15.64999961853
scalar IntersectionExampleScenario.node[0].veinsmobility 	totalDistance 	552.7004776001
scalar IntersectionExampleScenario.node[0].veinsmobility 	totalCO2Emission 	131.05833339831
scalar IntersectionExampleScenario.node[2].appl 	VehicleRemoved 	0
scalar IntersectionExampleScenario.node[2].appl 	ArrivedAtDest 	1
scalar IntersectionExampleScenario.node[2].appl 	IntersectionEnterTime 	11.75
scalar IntersectionExampleScenario.node[2].appl 	IntersectionExitTime 	36.054804269137
scalar IntersectionExampleScenario.node[2].appl 	NumberOfCollisions 	0
scalar IntersectionExampleScenario.node[2].nic.phy80211p 	busyTime 	0
scalar IntersectionExampleScenario.node[2].nic.mac1609_4 	ReceivedUnicastPackets 	0
scalar IntersectionExampleScenario.node[2].nic.mac1609_4 	ReceivedBroadcasts 	0
scalar IntersectionExampleScenario.node[2].nic.mac1609_4 	SentPackets 	0
scalar IntersectionExampleScenario.node[2].nic.mac1609_4 	SNIRLostPackets 	0
scalar IntersectionExampleScenario.node[2].nic.mac1609_4 	RXTXLostPackets 	0
scalar IntersectionExampleScenario.node[2].nic.mac1609_4 	TotalLostPackets 	0
scalar IntersectionExampleScenario.node[2].nic.mac1609_4 	DroppedPacketsInMac 	0
scalar IntersectionExampleScenario.node[2].nic.mac1609_4 	TooLittleTime 	0
scalar IntersectionExampleScenario.node[2].nic.mac1609_4 	TimesIntoBackoff 	0
scalar IntersectionExampleScenario.node[2].nic.mac1609_4 	SlotsBackoff 	0
scalar IntersectionExampleScenario.node[2].nic.mac1609_4 	NumInternalContention 	0
scalar IntersectionExampleScenario.node[2].nic.mac1609_4 	totalBusyTime 	0
scalar IntersectionExampleScenario.node[2].veinsmobility 	startTime 	11.75
scalar IntersectionExampleScenario.node[2].veinsmobility 	totalTime 	40.25
scalar IntersectionExampleScenario.node[2].veinsmobility 	stopTime 	52.25
scalar IntersectionExampleScenario.node[2].veinsmobility 	minSpeed 	5.6500000953674
scalar IntersectionExampleScenario.node[2].veinsmobility 	maxSpeed 	16
scalar IntersectionExampleScenario.node[2].veinsmobility 	totalDistance 	564.36420766309
scalar IntersectionExampleScenario.node[2].veinsmobility 	totalCO2Emission 	129.69906856271
scalar IntersectionExampleScenario.node[3].appl 	VehicleRemoved 	0
scalar IntersectionExampleScenario.node[3].appl 	ArrivedAtDest 	1
scalar IntersectionExampleScenario.node[3].appl 	IntersectionEnterTime 	21.5
scalar IntersectionExampleScenario.node[3].appl 	IntersectionExitTime 	44.570282892644
scalar IntersectionExampleScenario.node[3].appl 	NumberOfCollisions 	0
scalar IntersectionExampleScenario.node[3].nic.phy80211p 	busyTime 	0
scalar IntersectionExampleScenario.node[3].nic.mac1609_4 	ReceivedUnicastPackets 	0
scalar IntersectionExampleScenario.node[3].nic.mac1609_4 	ReceivedBroadcasts 	0
scalar IntersectionExampleScenario.node[3].nic.mac1609_4 	SentPackets 	0
scalar IntersectionExampleScenario.node[3].nic.mac1609_4 	SNIRLostPackets 	0
scalar IntersectionExampleScenario.node[3].nic.mac1609_4 	RXTXLostPackets 	0
scalar IntersectionExampleScenario.node[3].nic.mac1609_4 	TotalLostPackets 	0
scalar IntersectionExampleScenario.node[3].nic.mac1609_4 	DroppedPacketsInMac 	0
scalar IntersectionExampleScenario.node[3].nic.mac1609_4 	TooLittleTime 	0
scalar IntersectionExampleScenario.node[3].nic.mac1609_4 	TimesIntoBackoff 	0
scalar IntersectionExampleScenario.node[3].nic.mac1609_4 	SlotsBackoff 	0
scalar IntersectionExampleScenario.node[3].nic.mac1609_4 	NumInternalContention 	0
scalar IntersectionExampleScenario.node[3].nic.mac1609_4 	totalBusyTime 	0
scalar IntersectionExampleScenario.node[3].veinsmobility 	startTime 	21.5
scalar IntersectionExampleScenario.node[3].veinsmobility 	totalTime 	39
scalar IntersectionExampleScenario.node[3].veinsmobility 	stopTime 	60.75
scalar IntersectionExampleScenario.node[3].veinsmobility 	minSpeed 	5.6500000953674
scalar IntersectionExampleScenario.node[3].veinsmobility 	maxSpeed 	16
scalar IntersectionExampleScenario.node[3].veinsmobility 	totalDistance 	551.52595080317
scalar IntersectionExampleScenario.node[3].veinsmobility 	totalCO2Emission 	125.03908155005
scalar IntersectionExampleScenario.node[1].appl 	VehicleRemoved 	0
scalar IntersectionExampleScenario.node[1].appl 	ArrivedAtDest 	1
scalar IntersectionExampleScenario.node[1].appl 	IntersectionEnterTime 	9.5
scalar IntersectionExampleScenario.node[1].appl 	IntersectionExitTime 	48.54842348586
scalar IntersectionExampleScenario.node[1].appl 	NumberOfCollisions 	0
scalar IntersectionExampleScenario.node[1].nic.phy80211p 	busyTime 	0
scalar IntersectionExampleScenario.node[1].nic.mac1609_4 	ReceivedUnicastPackets 	0
scalar IntersectionExampleScenario.node[1].nic.mac1609_4 	ReceivedBroadcasts 	0
scalar IntersectionExampleScenario.node[1].nic.mac1609_4 	SentPackets 	0
scalar IntersectionExampleScenario.node[1].nic.mac1609_4 	SNIRLostPackets 	0
scalar IntersectionExampleScenario.node[1].nic.mac1609_4 	RXTXLostPackets 	0
scalar IntersectionExampleScenario.node[1].nic.mac1609_4 	TotalLostPackets 	0
scalar IntersectionExampleScenario.node[1].nic.mac1609_4 	DroppedPacketsInMac 	0
scalar IntersectionExampleScenario.node[1].nic.mac1609_4 	TooLittleTime 	0
scalar IntersectionExampleScenario.node[1].nic.mac1609_4 	TimesIntoBackoff 	0
scalar IntersectionExampleScenario.node[1].nic.mac1609_4 	SlotsBackoff 	0
scalar IntersectionExampleScenario.node[1].nic.mac1609_4 	NumInternalContention 	0
scalar IntersectionExampleScenario.node[1].nic.mac1609_4 	totalBusyTime 	0
scalar IntersectionExampleScenario.node[1].veinsmobility 	startTime 	9.5
scalar IntersectionExampleScenario.node[1].veinsmobility 	totalTime 	55.25
scalar IntersectionExampleScenario.node[1].veinsmobility 	stopTime 	65
scalar IntersectionExampleScenario.node[1].veinsmobility 	minSpeed 	0
scalar IntersectionExampleScenario.node[1].veinsmobility 	maxSpeed 	16.27499961853
scalar IntersectionExampleScenario.node[1].veinsmobility 	totalDistance 	546.04393674285
scalar IntersectionExampleScenario.node[1].veinsmobility 	totalCO2Emission 	152.93383520339
scalar IntersectionExampleScenario.node[5].appl 	VehicleRemoved 	0
scalar IntersectionExampleScenario.node[5].appl 	ArrivedAtDest 	1
scalar IntersectionExampleScenario.node[5].appl 	IntersectionEnterTime 	27.25
scalar IntersectionExampleScenario.node[5].appl 	IntersectionExitTime 	52.568715133559
scalar IntersectionExampleScenario.node[5].appl 	NumberOfCollisions 	0
scalar IntersectionExampleScenario.node[5].nic.phy80211p 	busyTime 	0
scalar IntersectionExampleScenario.node[5].nic.mac1609_4 	ReceivedUnicastPackets 	0
scalar IntersectionExampleScenario.node[5].nic.mac1609_4 	ReceivedBroadcasts 	0
scalar IntersectionExampleScenario.node[5].nic.mac1609_4 	SentPackets 	0
scalar IntersectionExampleScenario.node[5].nic.mac1609_4 	SNIRLostPackets 	0
scalar IntersectionExampleScenario.node[5].nic.mac1609_4 	RXTXLostPackets 	0
scalar IntersectionExampleScenario.node[5].nic.mac1609_4 	TotalLostPackets 	0
scalar IntersectionExampleScenario.node[5].nic.mac1609_4 	DroppedPacketsInMac 	0
scalar IntersectionExampleScenario.node[5].nic.mac1609_4 	TooLittleTime 	0
scalar IntersectionExampleScenario.node[5].nic.mac1609_4 	TimesIntoBackoff 	0
scalar IntersectionExampleScenario.node[5].nic.mac1609_4 	SlotsBackoff 	0
scalar IntersectionExampleScenario.node[5].nic.mac1609_4 	NumInternalContention 	0
scalar IntersectionExampleScenario.node[5].nic.mac1609_4 	totalBusyTime 	0
scalar IntersectionExampleScenario.node[5].veinsmobility 	startTime 	27.25
scalar IntersectionExampleScenario.node[5].veinsmobility 	totalTime 	42.25
scalar IntersectionExampleScenario.node[5].veinsmobility 	stopTime 	69.75
scalar IntersectionExampleScenario.node[5].veinsmobility 	minSpeed 	5.6500000953674
scalar IntersectionExampleScenario.node[5].veinsmobility 	maxSpeed 	15.25
scalar IntersectionExampleScenario.node[5].veinsmobility 	totalDistance 	544.99020119416
scalar IntersectionExampleScenario.node[5].veinsmobility 	totalCO2Emission 	135.59954649264
scalar IntersectionExampleScenario.node[7].appl 	VehicleRemoved 	0
scalar IntersectionExampleScenario.node[7].appl 	ArrivedAtDest 	1
scalar IntersectionExampleScenario.node[7].appl 	IntersectionEnterTime 	28.25
scalar IntersectionExampleScenario.node[7].appl 	IntersectionExitTime 	54.599129326321
scalar IntersectionExampleScenario.node[7].appl 	NumberOfCollisions 	0
scalar IntersectionExampleScenario.node[7].nic.phy80211p 	busyTime 	0
scalar IntersectionExampleScenario.node[7].nic.mac1609_4 	ReceivedUnicastPackets 	0
scalar IntersectionExampleScenario.node[7].nic.mac1609_4 	ReceivedBroadcasts 	0
scalar IntersectionExampleScenario.node[7].nic.mac1609_4 	SentPackets 	0
scalar IntersectionExampleScenario.node[7].nic.mac1609_4 	SNIRLostPackets 	0
scalar IntersectionExampleScenario.node[7].nic.mac1609_4 	RXTXLostPackets 	0
scalar IntersectionExampleScenario.node[7].nic.mac1609_4 	TotalLostPackets 	0
scalar IntersectionExampleScenario.node[7].nic.mac1609_4 	DroppedPacketsInMac 	0
scalar IntersectionExampleScenario.node[7].nic.mac1609_4 	TooLittleTime 	0
scalar IntersectionExampleScenario.node[7].nic.mac1609_4 	TimesIntoBackoff 	0
scalar IntersectionExampleScenario.node[7].nic.mac1609_4 	SlotsBackoff 	0
scalar IntersectionExampleScenario.node[7].nic.mac1609_4 	NumInternalContention 	0
scalar IntersectionExampleScenario.node[7].nic.mac1609_4 	totalBusyTime 	0
scalar IntersectionExampleScenario.node[7].veinsmobility 	startTime 	28.25
scalar IntersectionExampleScenario.node[7].veinsmobility 	totalTime 	43
scalar IntersectionExampleScenario.node[7].veinsmobility 	stopTime 	71.5
scalar IntersectionExampleScenario.node[7].veinsmobility 	minSpeed 	5.6500000953674
scalar IntersectionExampleScenario.node[7].veinsmobility 	maxSpeed 	14.875
scalar IntersectionExampleScenario.node[7].veinsmobility 	totalDistance 	576.1058807373
scalar IntersectionExampleScenario.node[7].veinsmobility 	totalCO2Emission 	128.40412591994
scalar IntersectionExampleScenario.node[8].appl 	VehicleRemoved 	0
scalar IntersectionExampleScenario.node[8].appl 	ArrivedAtDest 	1
scalar IntersectionExampleScenario.node[8].appl 	IntersectionEnterTime 	30
scalar IntersectionExampleScenario.node[8].appl 	IntersectionExitTime 	57.030205149116
scalar IntersectionExampleScenario.node[8].appl 	NumberOfCollisions 	0
scalar IntersectionExampleScenario.node[8].nic.phy80211p 	busyTime 	0
scalar IntersectionExampleScenario.node[8].nic.mac1609_4 	ReceivedUnicastPackets 	0
scalar IntersectionExampleScenario.node[8].nic.mac1609_4 	ReceivedBroadcasts 	0
scalar IntersectionExampleScenario.node[8].nic.mac1609_4 	SentPackets 	0
scalar IntersectionExampleScenario.node[8].nic.mac1609_4 	SNIRLostPackets 	0
scalar IntersectionExampleScenario.node[8].nic.mac1609_4 	RXTXLostPackets 	0
scalar IntersectionExampleScenario.node[8].nic.mac1609_4 	TotalLostPackets 	0
scalar IntersectionExampleScenario.node[8].nic.mac1609_4 	DroppedPacketsInMac 	0
scalar IntersectionExampleScenario.node[8].nic.mac1609_4 	TooLittleTime 	0
scalar IntersectionExampleScenario.node[8].nic.mac1609_4 	TimesIntoBackoff 	0
scalar IntersectionExampleScenario.node[8].nic.mac1609_4 	SlotsBackoff 	0
scalar IntersectionExampleScenario.node[8].nic.mac1609_4 	NumInternalContention 	0
scalar IntersectionExampleScenario.node[8].nic.mac1609_4 	totalBusyTime 	0
scalar IntersectionExampleScenario.node[8].veinsmobility 	startTime 	30
scalar IntersectionExampleScenario.node[8].veinsmobility 	totalTime 	43.5
scalar IntersectionExampleScenario.node[8].veinsmobility 	stopTime 	73.75
scalar IntersectionExampleScenario.node[8].veinsmobility 	minSpeed 	5.6500000953674
scalar IntersectionExampleScenario.node[8].veinsmobility 	maxSpeed 	15.608568191528
scalar IntersectionExampleScenario.node[8].veinsmobility 	totalDistance 	575.91692077843
scalar IntersectionExampleScenario.node[8].veinsmobility 	totalCO2Emission 	145.79187246562
scalar IntersectionExampleScenario.node[4].appl 	VehicleRemoved 	0
scalar IntersectionExampleScenario.node[4].appl 	ArrivedAtDest 	1
scalar IntersectionExampleScenario.node[4].appl 	IntersectionEnterTime 	22
scalar IntersectionExampleScenario.node[4].appl 	IntersectionExitTime 	63.35289696962
scalar IntersectionExampleScenario.node[4].appl 	NumberOfCollisions 	0
scalar IntersectionExampleScenario.node[4].nic.phy80211p 	busyTime 	0
scalar IntersectionExampleScenario.node[4].nic.mac1609_4 	ReceivedUnicastPackets 	0
scalar IntersectionExampleScenario.node[4].nic.mac1609_4 	ReceivedBroadcasts 	0
scalar IntersectionExampleScenario.node[4].nic.mac1609_4 	SentPackets 	0
scalar IntersectionExampleScenario.node[4].nic.mac1609_4 	SNIRLostPackets 	0
scalar IntersectionExampleScenario.node[4].nic.mac1609_4 	RXTXLostPackets 	0
scalar IntersectionExampleScenario.node[4].nic.mac1609_4 	TotalLostPackets 	0
scalar IntersectionExampleScenario.node[4].nic.mac1609_4 	DroppedPacketsInMac 	0
scalar IntersectionExampleScenario.node[4].nic.mac1609_4 	TooLittleTime 	0
scalar IntersectionExampleScenario.node[4].nic.mac1609_4 	TimesIntoBackoff 	0
scalar IntersectionExampleScenario.node[4].nic.mac1609_4 	SlotsBackoff 	0
scalar IntersectionExampleScenario.node[4].nic.mac1609_4 	NumInternalContention 	0
scalar IntersectionExampleScenario.node[4].nic.mac1609_4 	totalBusyTime 	0
scalar IntersectionExampleScenario.node[4].veinsmobility 	startTime 	22
scalar IntersectionExampleScenario.node[4].veinsmobility 	totalTime 	58.25
scalar IntersectionExampleScenario.node[4].veinsmobility 	stopTime 	80.5
scalar IntersectionExampleScenario.node[4].veinsmobility 	minSpeed 	0
scalar IntersectionExampleScenario.node[4].veinsmobility 	maxSpeed 	14.75
scalar IntersectionExampleScenario.node[4].veinsmobility 	totalDistance 	550.34266771426
scalar IntersectionExampleScenario.node[4].veinsmobility 	totalCO2Emission 	143.09205610606
scalar IntersectionExampleScenario.node[9].appl 	VehicleRemoved 	0
scalar IntersectionExampleScenario.node[9].appl 	ArrivedAtDest 	1
scalar IntersectionExampleScenario.node[9].appl 	IntersectionEnterTime 	31
scalar IntersectionExampleScenario.node[9].appl 	IntersectionExitTime 	65.273034837272
scalar IntersectionExampleScenario.node[9].appl 	NumberOfCollisions 	0
scalar IntersectionExampleScenario.node[9].nic.phy80211p 	busyTime 	0
scalar IntersectionExampleScenario.node[9].nic.mac1609_4 	ReceivedUnicastPackets 	0
scalar IntersectionExampleScenario.node[9].nic.mac1609_4 	ReceivedBroadcasts 	0
scalar IntersectionExampleScenario.node[9].nic.mac1609_4 	SentPackets 	0
scalar IntersectionExampleScenario.node[9].nic.mac1609_4 	SNIRLostPackets 	0
scalar IntersectionExampleScenario.node[9].nic.mac1609_4 	RXTXLostPackets 	0
scalar IntersectionExampleScenario.node[9].nic.mac1609_4 	TotalLostPackets 	0
scalar IntersectionExampleScenario.node[9].nic.mac1609_4 	DroppedPacketsInMac 	0
scalar IntersectionExampleScenario.node[9].nic.mac1609_4 	TooLittleTime 	0
scalar IntersectionExampleScenario.node[9].nic.mac1609_4 	TimesIntoBackoff 	0
scalar IntersectionExampleScenario.node[9].nic.mac1609_4 	SlotsBackoff 	0
scalar IntersectionExampleScenario.node[9].nic.mac1609_4 	NumInternalContention 	0
scalar IntersectionExampleScenario.node[9].nic.mac1609_4 	totalBusyTime 	0
scalar IntersectionExampleScenario.node[9].veinsmobility 	startTime 	31
scalar IntersectionExampleScenario.node[9].veinsmobility 	totalTime 	50.75
scalar IntersectionExampleScenario.node[9].veinsmobility 	stopTime 	82
scalar IntersectionExampleScenario.node[9].veinsmobility 	minSpeed 	0.99853736162186
scalar IntersectionExampleScenario.node[9].veinsmobility 	maxSpeed 	15.02499961853
scalar IntersectionExampleScenario.node[9].veinsmobility 	totalDistance 	548.96273636532
scalar IntersectionExampleScenario.node[9].veinsmobility 	totalCO2Emission 	136.6181476729
scalar IntersectionExampleScenario.node[6].appl 	VehicleRemoved 	0
scalar IntersectionExampleScenario.node[6].appl 	ArrivedAtDest 	1
scalar IntersectionExampleScenario.node[6].appl 	IntersectionEnterTime 	28.25
scalar IntersectionExampleScenario.node[6].appl 	IntersectionExitTime 	79.30606683236
scalar IntersectionExampleScenario.node[6].appl 	NumberOfCollisions 	0
scalar IntersectionExampleScenario.node[6].nic.phy80211p 	busyTime 	0
scalar IntersectionExampleScenario.node[6].nic.mac1609_4 	ReceivedUnicastPackets 	0
scalar IntersectionExampleScenario.node[6].nic.mac1609_4 	ReceivedBroadcasts 	0
scalar IntersectionExampleScenario.node[6].nic.mac1609_4 	SentPackets 	0
scalar IntersectionExampleScenario.node[6].nic.mac1609_4 	SNIRLostPackets 	0
scalar IntersectionExampleScenario.node[6].nic.mac1609_4 	RXTXLostPackets 	0
scalar IntersectionExampleScenario.node[6].nic.mac1609_4 	TotalLostPackets 	0
scalar IntersectionExampleScenario.node[6].nic.mac1609_4 	DroppedPacketsInMac 	0
scalar IntersectionExampleScenario.node[6].nic.mac1609_4 	TooLittleTime 	0
scalar IntersectionExampleScenario.node[6].nic.mac1609_4 	TimesIntoBackoff 	0
scalar IntersectionExampleScenario.node[6].nic.mac1609_4 	SlotsBackoff 	0
scalar IntersectionExampleScenario.node[6].nic.mac1609_4 	NumInternalContention 	0
scalar IntersectionExampleScenario.node[6].nic.mac1609_4 	totalBusyTime 	0
scalar IntersectionExampleScenario.node[6].veinsmobility 	startTime 	28.25
scalar IntersectionExampleScenario.node[6].veinsmobility 	totalTime 	67
scalar IntersectionExampleScenario.node[6].veinsmobility 	stopTime 	95.5
scalar IntersectionExampleScenario.node[6].veinsmobility 	minSpeed 	0
scalar IntersectionExampleScenario.node[6].veinsmobility 	maxSpeed 	15.64999961853
scalar IntersectionExampleScenario.node[6].veinsmobility 	totalDistance 	553.61808013916
scalar IntersectionExampleScenario.node[6].veinsmobility 	totalCO2Emission 	159.48781828446
scalar IntersectionExampleScenario.node[10].appl 	VehicleRemoved 	0
scalar IntersectionExampleScenario.node[10].appl 	ArrivedAtDest 	1
scalar IntersectionExampleScenario.node[10].appl 	IntersectionEnterTime 	32
scalar IntersectionExampleScenario.node[10].appl 	IntersectionExitTime 	81.269047656417
scalar IntersectionExampleScenario.node[10].appl 	NumberOfCollisions 	0
scalar IntersectionExampleScenario.node[10].nic.phy80211p 	busyTime 	0
scalar IntersectionExampleScenario.node[10].nic.mac1609_4 	ReceivedUnicastPackets 	0
scalar IntersectionExampleScenario.node[10].nic.mac1609_4 	ReceivedBroadcasts 	0
scalar IntersectionExampleScenario.node[10].nic.mac1609_4 	SentPackets 	0
scalar IntersectionExampleScenario.node[10].nic.mac1609_4 	SNIRLostPackets 	0
scalar IntersectionExampleScenario.node[10].nic.mac1609_4 	RXTXLostPackets 	0
scalar IntersectionExampleScenario.node[10].nic.mac1609_4 	TotalLostPackets 	0
scalar IntersectionExampleScenario.node[10].nic.mac1609_4 	DroppedPacketsInMac 	0
scalar IntersectionExampleScenario.node[10].nic.mac1609_4 	TooLittleTime 	0
scalar IntersectionExampleScenario.node[10].nic.mac1609_4 	TimesIntoBackoff 	0
scalar IntersectionExampleScenario.node[10].nic.mac1609_4 	SlotsBackoff 	0
scalar IntersectionExampleScenario.node[10].nic.mac1609_4 	NumInternalContention 	0
scalar IntersectionExampleScenario.node[10].nic.mac1609_4 	totalBusyTime 	0
scalar IntersectionExampleScenario.node[10].veinsmobility 	startTime 	32
scalar IntersectionExampleScenario.node[10].veinsmobility 	totalTime 	64.75
scalar IntersectionExampleScenario.node[10].veinsmobility 	stopTime 	97
scalar IntersectionExampleScenario.node[10].veinsmobility 	minSpeed 	0
scalar IntersectionExampleScenario.node[10].veinsmobility 	maxSpeed 	15.72198677063
scalar IntersectionExampleScenario.node[10].veinsmobility 	totalDistance 	559.27194976807
scalar IntersectionExampleScenario.node[10].veinsmobility 	totalCO2Emission 	160.38473582891
scalar IntersectionExampleScenario.node[11].appl 	VehicleRemoved 	0
scalar IntersectionExampleScenario.node[11].appl 	ArrivedAtDest 	1
scalar IntersectionExampleScenario.node[11].appl 	IntersectionEnterTime 	34
scalar IntersectionExampleScenario.node[11].appl 	IntersectionExitTime 	83.358580353844
scalar IntersectionExampleScenario.node[11].appl 	NumberOfCollisions 	0
scalar IntersectionExampleScenario.node[11].nic.phy80211p 	busyTime 	0
scalar IntersectionExampleScenario.node[11].nic.mac1609_4 	ReceivedUnicastPackets 	0
scalar IntersectionExampleScenario.node[11].nic.mac1609_4 	ReceivedBroadcasts 	0
scalar IntersectionExampleScenario.node[11].nic.mac1609_4 	SentPackets 	0
scalar IntersectionExampleScenario.node[11].nic.mac1609_4 	SNIRLostPackets 	0
scalar IntersectionExampleScenario.node[11].nic.mac1609_4 	RXTXLostPackets 	0
scalar IntersectionExampleScenario.node[11].nic.mac1609_4 	TotalLostPackets 	0
scalar IntersectionExampleScenario.node[11].nic.mac1609_4 	DroppedPacketsInMac 	0
scalar IntersectionExampleScenario.node[11].nic.mac1609_4 	TooLittleTime 	0
scalar IntersectionExampleScenario.node[11].nic.mac1609_4 	TimesIntoBackoff 	0
scalar IntersectionExampleScenario.node[11].nic.mac1609_4 	SlotsBackoff 	0
scalar IntersectionExampleScenario.node[11].nic.mac1609_4 	NumInternalContention 	0
scalar IntersectionExampleScenario.node[11].nic.mac1609_4 	totalBusyTime 	0
scalar IntersectionExampleScenario.node[11].veinsmobility 	startTime 	34
scalar IntersectionExampleScenario.node[11].veinsmobility 	totalTime 	65.5
scalar IntersectionExampleScenario.node[11].veinsmobility 	stopTime 	99.75
scalar IntersectionExampleScenario.node[11].veinsmobility 	minSpeed 	0
scalar IntersectionExampleScenario.node[11].veinsmobility 	maxSpeed 	15.64999961853
scalar IntersectionExampleScenario.node[11].veinsmobility 	totalDistance 	573.55806733621
scalar IntersectionExampleScenario.node[11].veinsmobility 	totalCO2Emission 	158.74902520573
scalar IntersectionExampleScenario.node[12].appl 	VehicleRemoved 	0
scalar IntersectionExampleScenario.node[12].appl 	ArrivedAtDest 	1
scalar IntersectionExampleScenario.node[12].appl 	IntersectionEnterTime 	35.5
scalar IntersectionExampleScenario.node[12].appl 	IntersectionExitTime 	86.361914115463
scalar IntersectionExampleScenario.node[12].appl 	NumberOfCollisions 	0
scalar IntersectionExampleScenario.node[12].nic.phy80211p 	busyTime 	0
scalar IntersectionExampleScenario.node[12].nic.mac1609_4 	ReceivedUnicastPackets 	0
scalar IntersectionExampleScenario.node[12].nic.mac1609_4 	ReceivedBroadcasts 	0
scalar IntersectionExampleScenario.node[12].nic.mac1609_4 	SentPackets 	0
scalar IntersectionExampleScenario.node[12].nic.mac1609_4 	SNIRLostPackets 	0
scalar IntersectionExampleScenario.node[12].nic.mac1609_4 	RXTXLostPackets 	0
scalar IntersectionExampleScenario.node[12].nic.mac1609_4 	TotalLostPackets 	0
scalar IntersectionExampleScenario.node[12].nic.mac1609_4 	DroppedPacketsInMac 	0
scalar IntersectionExampleScenario.node[12].nic.mac1609_4 	TooLittleTime 	0
scalar IntersectionExampleScenario.node[12].nic.mac1609_4 	TimesIntoBackoff 	0
scalar IntersectionExampleScenario.node[12].nic.mac1609_4 	SlotsBackoff 	0
scalar IntersectionExampleScenario.node[12].nic.mac1609_4 	NumInternalContention 	0
scalar IntersectionExampleScenario.node[12].nic.mac1609_4 	totalBusyTime 	0
scalar IntersectionExampleScenario.node[12].veinsmobility 	startTime 	35.5
scalar IntersectionExampleScenario.node[12].veinsmobility 	totalTime 	67.75
scalar IntersectionExampleScenario.node[12].veinsmobility 	stopTime 	103.5
scalar IntersectionExampleScenario.node[12].veinsmobility 	minSpeed 	0
scalar IntersectionExampleScenario.node[12].veinsmobility 	maxSpeed 	15.25
scalar IntersectionExampleScenario.node[12].veinsmobility 	totalDistance 	574.49317780658
scalar IntersectionExampleScenario.node[12].veinsmobility 	totalCO2Emission 	163.23759489625
scalar IntersectionExampleScenario.node[13].appl 	VehicleRemoved 	0
scalar IntersectionExampleScenario.node[13].appl 	ArrivedAtDest 	1
scalar IntersectionExampleScenario.node[13].appl 	IntersectionEnterTime 	38.5
scalar IntersectionExampleScenario.node[13].appl 	IntersectionExitTime 	88.514394597994
scalar IntersectionExampleScenario.node[13].appl 	NumberOfCollisions 	0
scalar IntersectionExampleScenario.node[13].nic.phy80211p 	busyTime 	0
scalar IntersectionExampleScenario.node[13].nic.mac1609_4 	ReceivedUnicastPackets 	0
scalar IntersectionExampleScenario.node[13].nic.mac1609_4 	ReceivedBroadcasts 	0
scalar IntersectionExampleScenario.node[13].nic.mac1609_4 	SentPackets 	0
scalar IntersectionExampleScenario.node[13].nic.mac1609_4 	SNIRLostPackets 	0
scalar IntersectionExampleScenario.node[13].nic.mac1609_4 	RXTXLostPackets 	0
scalar IntersectionExampleScenario.node[13].nic.mac1609_4 	TotalLostPackets 	0
scalar IntersectionExampleScenario.node[13].nic.mac1609_4 	DroppedPacketsInMac 	0
scalar IntersectionExampleScenario.node[13].nic.mac1609_4 	TooLittleTime 	0
scalar IntersectionExampleScenario.node[13].nic.mac1609_4 	TimesIntoBackoff 	0
scalar IntersectionExampleScenario.node[13].nic.mac1609_4 	SlotsBackoff 	0
scalar IntersectionExampleScenario.node[13].nic.mac1609_4 	NumInternalContention 	0
scalar IntersectionExampleScenario.node[13].nic.mac1609_4 	totalBusyTime 	0
scalar IntersectionExampleScenario.node[13].veinsmobility 	startTime 	38.5
scalar IntersectionExampleScenario.node[13].veinsmobility 	totalTime 	66
scalar IntersectionExampleScenario.node[13].veinsmobility 	stopTime 	104.75
scalar IntersectionExampleScenario.node[13].veinsmobility 	minSpeed 	0
scalar IntersectionExampleScenario.node[13].veinsmobility 	maxSpeed 	15.632189750671
scalar IntersectionExampleScenario.node[13].veinsmobility 	totalDistance 	579.53636465884
scalar IntersectionExampleScenario.node[13].veinsmobility 	totalCO2Emission 	165.4622569447
scalar IntersectionExampleScenario.node[15].appl 	VehicleRemoved 	0
scalar IntersectionExampleScenario.node[15].appl 	ArrivedAtDest 	1
scalar IntersectionExampleScenario.node[15].appl 	IntersectionEnterTime 	44
scalar IntersectionExampleScenario.node[15].appl 	IntersectionExitTime 	91.121872628806
scalar IntersectionExampleScenario.node[15].appl 	NumberOfCollisions 	0
scalar IntersectionExampleScenario.node[15].nic.phy80211p 	busyTime 	0
scalar IntersectionExampleScenario.node[15].nic.mac1609_4 	ReceivedUnicastPackets 	0
scalar IntersectionExampleScenario.node[15].nic.mac1609_4 	ReceivedBroadcasts 	0
scalar IntersectionExampleScenario.node[15].nic.mac1609_4 	SentPackets 	0
scalar IntersectionExampleScenario.node[15].nic.mac1609_4 	SNIRLostPackets 	0
scalar IntersectionExampleScenario.node[15].nic.mac1609_4 	RXTXLostPackets 	0
scalar IntersectionExampleScenario.node[15].nic.mac1609_4 	TotalLostPackets 	0
scalar IntersectionExampleScenario.node[15].nic.mac1609_4 	DroppedPacketsInMac 	0
scalar IntersectionExampleScenario.node[15].nic.mac1609_4 	TooLittleTime 	0
scalar IntersectionExampleScenario.node[15].nic.mac1609_4 	TimesIntoBackoff 	0
scalar IntersectionExampleScenario.node[15].nic.mac1609_4 	SlotsBackoff 	0
scalar IntersectionExampleScenario.node[15].nic.mac1609_4 	NumInternalContention 	0
scalar IntersectionExampleScenario.node[15].nic.mac1609_4 	totalBusyTime 	0
scalar IntersectionExampleScenario.node[15].veinsmobility 	startTime 	44
scalar IntersectionExampleScenario.node[15].veinsmobility 	totalTime 	63.25
scalar IntersectionExampleScenario.node[15].veinsmobility 	stopTime 	107.5
scalar IntersectionExampleScenario.node[15].veinsmobility 	minSpeed 	0
scalar IntersectionExampleScenario.node[15].veinsmobility 	maxSpeed 	15.64999961853
scalar IntersectionExampleScenario.node[15].veinsmobility 	totalDistance 	561.07557083738
scalar IntersectionExampleScenario.node[15].veinsmobility 	totalCO2Emission 	156.97103125293
scalar IntersectionExampleScenario.node[16].appl 	VehicleRemoved 	0
scalar IntersectionExampleScenario.node[16].appl 	ArrivedAtDest 	1
scalar IntersectionExampleScenario.node[16].appl 	IntersectionEnterTime 	48.25
scalar IntersectionExampleScenario.node[16].appl 	IntersectionExitTime 	92.510431961156
scalar IntersectionExampleScenario.node[16].appl 	NumberOfCollisions 	0
scalar IntersectionExampleScenario.node[16].nic.phy80211p 	busyTime 	0
scalar IntersectionExampleScenario.node[16].nic.mac1609_4 	ReceivedUnicastPackets 	0
scalar IntersectionExampleScenario.node[16].nic.mac1609_4 	ReceivedBroadcasts 	0
scalar IntersectionExampleScenario.node[16].nic.mac1609_4 	SentPackets 	0
scalar IntersectionExampleScenario.node[16].nic.mac1609_4 	SNIRLostPackets 	0
scalar IntersectionExampleScenario.node[16].nic.mac1609_4 	RXTXLostPackets 	0
scalar IntersectionExampleScenario.node[16].nic.mac1609_4 	TotalLostPackets 	0
scalar IntersectionExampleScenario.node[16].nic.mac1609_4 	DroppedPacketsInMac 	0
scalar IntersectionExampleScenario.node[16].nic.mac1609_4 	TooLittleTime 	0
scalar IntersectionExampleScenario.node[16].nic.mac1609_4 	TimesIntoBackoff 	0
scalar IntersectionExampleScenario.node[16].nic.mac1609_4 	SlotsBackoff 	0
scalar IntersectionExampleScenario.node[16].nic.mac1609_4 	NumInternalContention 	0
scalar IntersectionExampleScenario.node[16].nic.mac1609_4 	totalBusyTime 	0
scalar IntersectionExampleScenario.node[16].veinsmobility 	startTime 	48.25
scalar IntersectionExampleScenario.node[16].veinsmobility 	totalTime 	59.5
scalar IntersectionExampleScenario.node[16].veinsmobility 	stopTime 	108
scalar IntersectionExampleScenario.node[16].veinsmobility 	minSpeed 	0
scalar IntersectionExampleScenario.node[16].veinsmobility 	maxSpeed 	16.125
scalar IntersectionExampleScenario.node[16].veinsmobility 	totalDistance 	561.56561279297
scalar IntersectionExampleScenario.node[16].veinsmobility 	totalCO2Emission 	160.05068482682
scalar IntersectionExampleScenario.node[14].appl 	VehicleRemoved 	0
scalar IntersectionExampleScenario.node[14].appl 	ArrivedAtDest 	1
scalar IntersectionExampleScenario.node[14].appl 	IntersectionEnterTime 	43.25
scalar IntersectionExampleScenario.node[14].appl 	IntersectionExitTime 	93.601417095691
scalar IntersectionExampleScenario.node[14].appl 	NumberOfCollisions 	0
scalar IntersectionExampleScenario.node[14].nic.phy80211p 	busyTime 	0
scalar IntersectionExampleScenario.node[14].nic.mac1609_4 	ReceivedUnicastPackets 	0
scalar IntersectionExampleScenario.node[14].nic.mac1609_4 	ReceivedBroadcasts 	0
scalar IntersectionExampleScenario.node[14].nic.mac1609_4 	SentPackets 	0
scalar IntersectionExampleScenario.node[14].nic.mac1609_4 	SNIRLostPackets 	0
scalar IntersectionExampleScenario.node[14].nic.mac1609_4 	RXTXLostPackets 	0
scalar IntersectionExampleScenario.node[14].nic.mac1609_4 	TotalLostPackets 	0
scalar IntersectionExampleScenario.node[14].nic.mac1609_4 	DroppedPacketsInMac 	0
scalar IntersectionExampleScenario.node[14].nic.mac1609_4 	TooLittleTime 	0
scalar IntersectionExampleScenario.node[14].nic.mac1609_4 	TimesIntoBackoff 	0
scalar IntersectionExampleScenario.node[14].nic.mac1609_4 	SlotsBackoff 	0
scalar IntersectionExampleScenario.node[14].nic.mac1609_4 	NumInternalContention 	0
scalar IntersectionExampleScenario.node[14].nic.mac1609_4 	totalBusyTime 	0
scalar IntersectionExampleScenario.node[14].veinsmobility 	startTime 	43.25
scalar IntersectionExampleScenario.node[14].veinsmobility 	totalTime 	66.5
scalar IntersectionExampleScenario.node[14].veinsmobility 	stopTime 	110
scalar IntersectionExampleScenario.node[14].veinsmobility 	minSpeed 	0
scalar IntersectionExampleScenario.node[14].veinsmobility 	maxSpeed 	16.27499961853
scalar IntersectionExampleScenario.node[14].veinsmobility 	totalDistance 	544.91753293425
scalar IntersectionExampleScenario.node[14].veinsmobility 	totalCO2Emission 	163.42741414822
scalar IntersectionExampleScenario.node[17].appl 	VehicleRemoved 	0
scalar IntersectionExampleScenario.node[17].appl 	ArrivedAtDest 	1
scalar IntersectionExampleScenario.node[17].appl 	IntersectionEnterTime 	51
scalar IntersectionExampleScenario.node[17].appl 	IntersectionExitTime 	95.266913529485
scalar IntersectionExampleScenario.node[17].appl 	NumberOfCollisions 	0
scalar IntersectionExampleScenario.node[17].nic.phy80211p 	busyTime 	0
scalar IntersectionExampleScenario.node[17].nic.mac1609_4 	ReceivedUnicastPackets 	0
scalar IntersectionExampleScenario.node[17].nic.mac1609_4 	ReceivedBroadcasts 	0
scalar IntersectionExampleScenario.node[17].nic.mac1609_4 	SentPackets 	0
scalar IntersectionExampleScenario.node[17].nic.mac1609_4 	SNIRLostPackets 	0
scalar IntersectionExampleScenario.node[17].nic.mac1609_4 	RXTXLostPackets 	0
scalar IntersectionExampleScenario.node[17].nic.mac1609_4 	TotalLostPackets 	0
scalar IntersectionExampleScenario.node[17].nic.mac1609_4 	DroppedPacketsInMac 	0
scalar IntersectionExampleScenario.node[17].nic.mac1609_4 	TooLittleTime 	0
scalar IntersectionExampleScenario.node[17].nic.mac1609_4 	TimesIntoBackoff 	0
scalar IntersectionExampleScenario.node[17].nic.mac1609_4 	SlotsBackoff 	0
scalar IntersectionExampleScenario.node[17].nic.mac1609_4 	NumInternalContention 	0
scalar IntersectionExampleScenario.node[17].nic.mac1609_4 	totalBusyTime 	0
scalar IntersectionExampleScenario.node[17].veinsmobility 	startTime 	51
scalar IntersectionExampleScenario.node[17].veinsmobility 	totalTime 	59.75
scalar IntersectionExampleScenario.node[17].veinsmobility 	stopTime 	111
scalar IntersectionExampleScenario.node[17].veinsmobility 	minSpeed 	0
scalar IntersectionExampleScenario.node[17].veinsmobility 	maxSpeed 	16.89999961853
scalar IntersectionExampleScenario.node[17].veinsmobility 	totalDistance 	552.08520089781
scalar IntersectionExampleScenario.node[17].veinsmobility 	totalCO2Emission 	157.35210479422
scalar IntersectionExampleScenario.node[18].appl 	VehicleRemoved 	0
scalar IntersectionExampleScenario.node[18].appl 	ArrivedAtDest 	1
scalar IntersectionExampleScenario.node[18].appl 	IntersectionEnterTime 	51.75
scalar IntersectionExampleScenario.node[18].appl 	IntersectionExitTime 	97.622255021124
scalar IntersectionExampleScenario.node[18].appl 	NumberOfCollisions 	0
scalar IntersectionExampleScenario.node[18].nic.phy80211p 	busyTime 	0
scalar IntersectionExampleScenario.node[18].nic.mac1609_4 	ReceivedUnicastPackets 	0
scalar IntersectionExampleScenario.node[18].nic.mac1609_4 	ReceivedBroadcasts 	0
scalar IntersectionExampleScenario.node[18].nic.mac1609_4 	SentPackets 	0
scalar IntersectionExampleScenario.node[18].nic.mac1609_4 	SNIRLostPackets 	0
scalar IntersectionExampleScenario.node[18].nic.mac1609_4 	RXTXLostPackets 	0
scalar IntersectionExampleScenario.node[18].nic.mac1609_4 	TotalLostPackets 	0
scalar IntersectionExampleScenario.node[18].nic.mac1609_4 	DroppedPacketsInMac 	0
scalar IntersectionExampleScenario.node[18].nic.mac1609_4 	TooLittleTime 	0
scalar IntersectionExampleScenario.node[18].nic.mac1609_4 	TimesIntoBackoff 	0
scalar IntersectionExampleScenario.node[18].nic.mac1609_4 	SlotsBackoff 	0
scalar IntersectionExampleScenario.node[18].nic.mac1609_4 	NumInternalContention 	0
scalar IntersectionExampleScenario.node[18].nic.mac1609_4 	totalBusyTime 	0
scalar IntersectionExampleScenario.node[18].veinsmobility 	startTime 	51.75
scalar IntersectionExampleScenario.node[18].veinsmobility 	totalTime 	62.25
scalar IntersectionExampleScenario.node[18].veinsmobility 	stopTime 	114.25
scalar IntersectionExampleScenario.node[18].veinsmobility 	minSpeed 	0
scalar IntersectionExampleScenario.node[18].veinsmobility 	maxSpeed 	15.497510910034
scalar IntersectionExampleScenario.node[18].veinsmobility 	totalDistance 	573.2307763944
scalar IntersectionExampleScenario.node[18].veinsmobility 	totalCO2Emission 	153.01532305689
scalar IntersectionExampleScenario.node[24].appl 	VehicleRemoved 	0
scalar IntersectionExampleScenario.node[24].appl 	ArrivedAtDest 	1
scalar IntersectionExampleScenario.node[24].appl 	IntersectionEnterTime 	80.75
scalar IntersectionExampleScenario.node[24].appl 	IntersectionExitTime 	104.01841401041
scalar IntersectionExampleScenario.node[24].appl 	NumberOfCollisions 	0
scalar IntersectionExampleScenario.node[24].nic.phy80211p 	busyTime 	0
scalar IntersectionExampleScenario.node[24].nic.mac1609_4 	ReceivedUnicastPackets 	0
scalar IntersectionExampleScenario.node[24].nic.mac1609_4 	ReceivedBroadcasts 	0
scalar IntersectionExampleScenario.node[24].nic.mac1609_4 	SentPackets 	0
scalar IntersectionExampleScenario.node[24].nic.mac1609_4 	SNIRLostPackets 	0
scalar IntersectionExampleScenario.node[24].nic.mac1609_4 	RXTXLostPackets 	0
scalar IntersectionExampleScenario.node[24].nic.mac1609_4 	TotalLostPackets 	0
scalar IntersectionExampleScenario.node[24].nic.mac1609_4 	DroppedPacketsInMac 	0
scalar IntersectionExampleScenario.node[24].nic.mac1609_4 	TooLittleTime 	0
scalar IntersectionExampleScenario.node[24].nic.mac1609_4 	TimesIntoBackoff 	0
scalar IntersectionExampleScenario.node[24].nic.mac1609_4 	SlotsBackoff 	0
scalar IntersectionExampleScenario.node[24].nic.mac1609_4 	NumInternalContention 	0
scalar IntersectionExampleScenario.node[24].nic.mac1609_4 	totalBusyTime 	0
scalar IntersectionExampleScenario.node[24].veinsmobility 	startTime 	80.75
scalar IntersectionExampleScenario.node[24].veinsmobility 	totalTime 	39.75
scalar IntersectionExampleScenario.node[24].veinsmobility 	stopTime 	120.75
scalar IntersectionExampleScenario.node[24].veinsmobility 	minSpeed 	5.6500000953674
scalar IntersectionExampleScenario.node[24].veinsmobility 	maxSpeed 	15.875
scalar IntersectionExampleScenario.node[24].veinsmobility 	totalDistance 	546.69466754309
scalar IntersectionExampleScenario.node[24].veinsmobility 	totalCO2Emission 	128.78741852314
scalar IntersectionExampleScenario.node[20].appl 	VehicleRemoved 	0
scalar IntersectionExampleScenario.node[20].appl 	ArrivedAtDest 	1
scalar IntersectionExampleScenario.node[20].appl 	IntersectionEnterTime 	57.75
scalar IntersectionExampleScenario.node[20].appl 	IntersectionExitTime 	108.25408523556
scalar IntersectionExampleScenario.node[20].appl 	NumberOfCollisions 	0
scalar IntersectionExampleScenario.node[20].nic.phy80211p 	busyTime 	0
scalar IntersectionExampleScenario.node[20].nic.mac1609_4 	ReceivedUnicastPackets 	0
scalar IntersectionExampleScenario.node[20].nic.mac1609_4 	ReceivedBroadcasts 	0
scalar IntersectionExampleScenario.node[20].nic.mac1609_4 	SentPackets 	0
scalar IntersectionExampleScenario.node[20].nic.mac1609_4 	SNIRLostPackets 	0
scalar IntersectionExampleScenario.node[20].nic.mac1609_4 	RXTXLostPackets 	0
scalar IntersectionExampleScenario.node[20].nic.mac1609_4 	TotalLostPackets 	0
scalar IntersectionExampleScenario.node[20].nic.mac1609_4 	DroppedPacketsInMac 	0
scalar IntersectionExampleScenario.node[20].nic.mac1609_4 	TooLittleTime 	0
scalar IntersectionExampleScenario.node[20].nic.mac1609_4 	TimesIntoBackoff 	0
scalar IntersectionExampleScenario.node[20].nic.mac1609_4 	SlotsBackoff 	0
scalar IntersectionExampleScenario.node[20].nic.mac1609_4 	NumInternalContention 	0
scalar IntersectionExampleScenario.node[20].nic.mac1609_4 	totalBusyTime 	0
scalar IntersectionExampleScenario.node[20].veinsmobility 	startTime 	57.75
scalar IntersectionExampleScenario.node[20].veinsmobility 	totalTime 	65.25
scalar IntersectionExampleScenario.node[20].veinsmobility 	stopTime 	123.25
scalar IntersectionExampleScenario.node[20].veinsmobility 	minSpeed 	0
scalar IntersectionExampleScenario.node[20].veinsmobility 	maxSpeed 	16.89999961853
scalar IntersectionExampleScenario.node[20].veinsmobility 	totalDistance 	551.62211608887
scalar IntersectionExampleScenario.node[20].veinsmobility 	totalCO2Emission 	171.07037702136
scalar IntersectionExampleScenario.node[21].appl 	VehicleRemoved 	0
scalar IntersectionExampleScenario.node[21].appl 	ArrivedAtDest 	1
scalar IntersectionExampleScenario.node[21].appl 	IntersectionEnterTime 	65.5
scalar IntersectionExampleScenario.node[21].appl 	IntersectionExitTime 	108.28719117457
scalar IntersectionExampleScenario.node[21].appl 	NumberOfCollisions 	0
scalar IntersectionExampleScenario.node[21].nic.phy80211p 	busyTime 	0
scalar IntersectionExampleScenario.node[21].nic.mac1609_4 	ReceivedUnicastPackets 	0
scalar IntersectionExampleScenario.node[21].nic.mac1609_4 	ReceivedBroadcasts 	0
scalar IntersectionExampleScenario.node[21].nic.mac1609_4 	SentPackets 	0
scalar IntersectionExampleScenario.node[21].nic.mac1609_4 	SNIRLostPackets 	0
scalar IntersectionExampleScenario.node[21].nic.mac1609_4 	RXTXLostPackets 	0
scalar IntersectionExampleScenario.node[21].nic.mac1609_4 	TotalLostPackets 	0
scalar IntersectionExampleScenario.node[21].nic.mac1609_4 	DroppedPacketsInMac 	0
scalar IntersectionExampleScenario.node[21].nic.mac1609_4 	TooLittleTime 	0
scalar IntersectionExampleScenario.node[21].nic.mac1609_4 	TimesIntoBackoff 	0
scalar IntersectionExampleScenario.node[21].nic.mac1609_4 	SlotsBackoff 	0
scalar IntersectionExampleScenario.node[21].nic.mac1609_4 	NumInternalContention 	0
scalar IntersectionExampleScenario.node[21].nic.mac1609_4 	totalBusyTime 	0
scalar IntersectionExampleScenario.node[21].veinsmobility 	startTime 	65.5
scalar IntersectionExampleScenario.node[21].veinsmobility 	totalTime 	58.5
scalar IntersectionExampleScenario.node[21].veinsmobility 	stopTime 	124.25
scalar IntersectionExampleScenario.node[21].veinsmobility 	minSpeed 	0
scalar IntersectionExampleScenario.node[21].veinsmobility 	maxSpeed 	16
scalar IntersectionExampleScenario.node[21].veinsmobility 	totalDistance 	549.90858568301
scalar IntersectionExampleScenario.node[21].veinsmobility 	totalCO2Emission 	153.14916334589
scalar IntersectionExampleScenario.node[22].appl 	VehicleRemoved 	0
scalar IntersectionExampleScenario.node[22].appl 	ArrivedAtDest 	1
scalar IntersectionExampleScenario.node[22].appl 	IntersectionEnterTime 	72.25
scalar IntersectionExampleScenario.node[22].appl 	IntersectionExitTime 	110.10918327601
scalar IntersectionExampleScenario.node[22].appl 	NumberOfCollisions 	0
scalar IntersectionExampleScenario.node[22].nic.phy80211p 	busyTime 	0
scalar IntersectionExampleScenario.node[22].nic.mac1609_4 	ReceivedUnicastPackets 	0
scalar IntersectionExampleScenario.node[22].nic.mac1609_4 	ReceivedBroadcasts 	0
scalar IntersectionExampleScenario.node[22].nic.mac1609_4 	SentPackets 	0
scalar IntersectionExampleScenario.node[22].nic.mac1609_4 	SNIRLostPackets 	0
scalar IntersectionExampleScenario.node[22].nic.mac1609_4 	RXTXLostPackets 	0
scalar IntersectionExampleScenario.node[22].nic.mac1609_4 	TotalLostPackets 	0
scalar IntersectionExampleScenario.node[22].nic.mac1609_4 	DroppedPacketsInMac 	0
scalar IntersectionExampleScenario.node[22].nic.mac1609_4 	TooLittleTime 	0
scalar IntersectionExampleScenario.node[22].nic.mac1609_4 	TimesIntoBackoff 	0
scalar IntersectionExampleScenario.node[22].nic.mac1609_4 	SlotsBackoff 	0
scalar IntersectionExampleScenario.node[22].nic.mac1609_4 	NumInternalContention 	0
scalar IntersectionExampleScenario.node[22].nic.mac1609_4 	totalBusyTime 	0
scalar IntersectionExampleScenario.node[22].veinsmobility 	startTime 	72.25
scalar IntersectionExampleScenario.node[22].veinsmobility 	totalTime 	54
scalar IntersectionExampleScenario.node[22].veinsmobility 	stopTime 	126.5
scalar IntersectionExampleScenario.node[22].veinsmobility 	minSpeed 	0
scalar IntersectionExampleScenario.node[22].veinsmobility 	maxSpeed 	15.896474838257
scalar IntersectionExampleScenario.node[22].veinsmobility 	totalDistance 	551.6646188628
scalar IntersectionExampleScenario.node[22].veinsmobility 	totalCO2Emission 	143.72067021342
scalar IntersectionExampleScenario.node[26].appl 	VehicleRemoved 	0
scalar IntersectionExampleScenario.node[26].appl 	ArrivedAtDest 	1
scalar IntersectionExampleScenario.node[26].appl 	IntersectionEnterTime 	82.75
scalar IntersectionExampleScenario.node[26].appl 	IntersectionExitTime 	110.32653263785
scalar IntersectionExampleScenario.node[26].appl 	NumberOfCollisions 	0
scalar IntersectionExampleScenario.node[26].nic.phy80211p 	busyTime 	0
scalar IntersectionExampleScenario.node[26].nic.mac1609_4 	ReceivedUnicastPackets 	0
scalar IntersectionExampleScenario.node[26].nic.mac1609_4 	ReceivedBroadcasts 	0
scalar IntersectionExampleScenario.node[26].nic.mac1609_4 	SentPackets 	0
scalar IntersectionExampleScenario.node[26].nic.mac1609_4 	SNIRLostPackets 	0
scalar IntersectionExampleScenario.node[26].nic.mac1609_4 	RXTXLostPackets 	0
scalar IntersectionExampleScenario.node[26].nic.mac1609_4 	TotalLostPackets 	0
scalar IntersectionExampleScenario.node[26].nic.mac1609_4 	DroppedPacketsInMac 	0
scalar IntersectionExampleScenario.node[26].nic.mac1609_4 	TooLittleTime 	0
scalar IntersectionExampleScenario.node[26].nic.mac1609_4 	TimesIntoBackoff 	0
scalar IntersectionExampleScenario.node[26].nic.mac1609_4 	SlotsBackoff 	0
scalar IntersectionExampleScenario.node[26].nic.mac1609_4 	NumInternalContention 	0
scalar IntersectionExampleScenario.node[26].nic.mac1609_4 	totalBusyTime 	0
scalar IntersectionExampleScenario.node[26].veinsmobility 	startTime 	82.75
scalar IntersectionExampleScenario.node[26].veinsmobility 	totalTime 	44.25
scalar IntersectionExampleScenario.node[26].veinsmobility 	stopTime 	127.25
scalar IntersectionExampleScenario.node[26].veinsmobility 	minSpeed 	4.886908531189
scalar IntersectionExampleScenario.node[26].veinsmobility 	maxSpeed 	15.375
scalar IntersectionExampleScenario.node[26].veinsmobility 	totalDistance 	551.84562737086
scalar IntersectionExampleScenario.node[26].veinsmobility 	totalCO2Emission 	132.66036894995
scalar IntersectionExampleScenario.node[23].appl 	VehicleRemoved 	0
scalar IntersectionExampleScenario.node[23].appl 	ArrivedAtDest 	1
scalar IntersectionExampleScenario.node[23].appl 	IntersectionEnterTime 	74.75
scalar IntersectionExampleScenario.node[23].appl 	IntersectionExitTime 	112.86870093879
scalar IntersectionExampleScenario.node[23].appl 	NumberOfCollisions 	0
scalar IntersectionExampleScenario.node[23].nic.phy80211p 	busyTime 	0
scalar IntersectionExampleScenario.node[23].nic.mac1609_4 	ReceivedUnicastPackets 	0
scalar IntersectionExampleScenario.node[23].nic.mac1609_4 	ReceivedBroadcasts 	0
scalar IntersectionExampleScenario.node[23].nic.mac1609_4 	SentPackets 	0
scalar IntersectionExampleScenario.node[23].nic.mac1609_4 	SNIRLostPackets 	0
scalar IntersectionExampleScenario.node[23].nic.mac1609_4 	RXTXLostPackets 	0
scalar IntersectionExampleScenario.node[23].nic.mac1609_4 	TotalLostPackets 	0
scalar IntersectionExampleScenario.node[23].nic.mac1609_4 	DroppedPacketsInMac 	0
scalar IntersectionExampleScenario.node[23].nic.mac1609_4 	TooLittleTime 	0
scalar IntersectionExampleScenario.node[23].nic.mac1609_4 	TimesIntoBackoff 	0
scalar IntersectionExampleScenario.node[23].nic.mac1609_4 	SlotsBackoff 	0
scalar IntersectionExampleScenario.node[23].nic.mac1609_4 	NumInternalContention 	0
scalar IntersectionExampleScenario.node[23].nic.mac1609_4 	totalBusyTime 	0
scalar IntersectionExampleScenario.node[23].veinsmobility 	startTime 	74.75
scalar IntersectionExampleScenario.node[23].veinsmobility 	totalTime 	55.75
scalar IntersectionExampleScenario.node[23].veinsmobility 	stopTime 	130.75
scalar IntersectionExampleScenario.node[23].veinsmobility 	minSpeed 	1.3738100528717
scalar IntersectionExampleScenario.node[23].veinsmobility 	maxSpeed 	14.39999961853
scalar IntersectionExampleScenario.node[23].veinsmobility 	totalDistance 	567.59714756417
scalar IntersectionExampleScenario.node[23].veinsmobility 	totalCO2Emission 	136.95198879918
scalar IntersectionExampleScenario.node[28].appl 	VehicleRemoved 	0
scalar IntersectionExampleScenario.node[28].appl 	ArrivedAtDest 	1
scalar IntersectionExampleScenario.node[28].appl 	IntersectionEnterTime 	87.5
scalar IntersectionExampleScenario.node[28].appl 	IntersectionExitTime 	113.51882274231
scalar IntersectionExampleScenario.node[28].appl 	NumberOfCollisions 	0
scalar IntersectionExampleScenario.node[28].nic.phy80211p 	busyTime 	0
scalar IntersectionExampleScenario.node[28].nic.mac1609_4 	ReceivedUnicastPackets 	0
scalar IntersectionExampleScenario.node[28].nic.mac1609_4 	ReceivedBroadcasts 	0
scalar IntersectionExampleScenario.node[28].nic.mac1609_4 	SentPackets 	0
scalar IntersectionExampleScenario.node[28].nic.mac1609_4 	SNIRLostPackets 	0
scalar IntersectionExampleScenario.node[28].nic.mac1609_4 	RXTXLostPackets 	0
scalar IntersectionExampleScenario.node[28].nic.mac1609_4 	TotalLostPackets 	0
scalar IntersectionExampleScenario.node[28].nic.mac1609_4 	DroppedPacketsInMac 	0
scalar IntersectionExampleScenario.node[28].nic.mac1609_4 	TooLittleTime 	0
scalar IntersectionExampleScenario.node[28].nic.mac1609_4 	TimesIntoBackoff 	0
scalar IntersectionExampleScenario.node[28].nic.mac1609_4 	SlotsBackoff 	0
scalar IntersectionExampleScenario.node[28].nic.mac1609_4 	NumInternalContention 	0
scalar IntersectionExampleScenario.node[28].nic.mac1609_4 	totalBusyTime 	0
scalar IntersectionExampleScenario.node[28].veinsmobility 	startTime 	87.5
scalar IntersectionExampleScenario.node[28].veinsmobility 	totalTime 	43.5
scalar IntersectionExampleScenario.node[28].veinsmobility 	stopTime 	131.25
scalar IntersectionExampleScenario.node[28].veinsmobility 	minSpeed 	5.6500000953674
scalar IntersectionExampleScenario.node[28].veinsmobility 	maxSpeed 	14.39999961853
scalar IntersectionExampleScenario.node[28].veinsmobility 	totalDistance 	549.80075137193
scalar IntersectionExampleScenario.node[28].veinsmobility 	totalCO2Emission 	123.1191383236
scalar IntersectionExampleScenario.node[27].appl 	VehicleRemoved 	0
scalar IntersectionExampleScenario.node[27].appl 	ArrivedAtDest 	1
scalar IntersectionExampleScenario.node[27].appl 	IntersectionEnterTime 	87.5
scalar IntersectionExampleScenario.node[27].appl 	IntersectionExitTime 	114.75462261066
scalar IntersectionExampleScenario.node[27].appl 	NumberOfCollisions 	0
scalar IntersectionExampleScenario.node[27].nic.phy80211p 	busyTime 	0
scalar IntersectionExampleScenario.node[27].nic.mac1609_4 	ReceivedUnicastPackets 	0
scalar IntersectionExampleScenario.node[27].nic.mac1609_4 	ReceivedBroadcasts 	0
scalar IntersectionExampleScenario.node[27].nic.mac1609_4 	SentPackets 	0
scalar IntersectionExampleScenario.node[27].nic.mac1609_4 	SNIRLostPackets 	0
scalar IntersectionExampleScenario.node[27].nic.mac1609_4 	RXTXLostPackets 	0
scalar IntersectionExampleScenario.node[27].nic.mac1609_4 	TotalLostPackets 	0
scalar IntersectionExampleScenario.node[27].nic.mac1609_4 	DroppedPacketsInMac 	0
scalar IntersectionExampleScenario.node[27].nic.mac1609_4 	TooLittleTime 	0
scalar IntersectionExampleScenario.node[27].nic.mac1609_4 	TimesIntoBackoff 	0
scalar IntersectionExampleScenario.node[27].nic.mac1609_4 	SlotsBackoff 	0
scalar IntersectionExampleScenario.node[27].nic.mac1609_4 	NumInternalContention 	0
scalar IntersectionExampleScenario.node[27].nic.mac1609_4 	totalBusyTime 	0
scalar IntersectionExampleScenario.node[27].veinsmobility 	startTime 	87.5
scalar IntersectionExampleScenario.node[27].veinsmobility 	totalTime 	45
scalar IntersectionExampleScenario.node[27].veinsmobility 	stopTime 	132.75
scalar IntersectionExampleScenario.node[27].veinsmobility 	minSpeed 	5.6500000953674
scalar IntersectionExampleScenario.node[27].veinsmobility 	maxSpeed 	15.64999961853
scalar IntersectionExampleScenario.node[27].veinsmobility 	totalDistance 	545.91202877677
scalar IntersectionExampleScenario.node[27].veinsmobility 	totalCO2Emission 	138.80187786645
scalar IntersectionExampleScenario.node[30].appl 	VehicleRemoved 	0
scalar IntersectionExampleScenario.node[30].appl 	ArrivedAtDest 	1
scalar IntersectionExampleScenario.node[30].appl 	IntersectionEnterTime 	95
scalar IntersectionExampleScenario.node[30].appl 	IntersectionExitTime 	118.02362052444
scalar IntersectionExampleScenario.node[30].appl 	NumberOfCollisions 	0
scalar IntersectionExampleScenario.node[30].nic.phy80211p 	busyTime 	0
scalar IntersectionExampleScenario.node[30].nic.mac1609_4 	ReceivedUnicastPackets 	0
scalar IntersectionExampleScenario.node[30].nic.mac1609_4 	ReceivedBroadcasts 	0
scalar IntersectionExampleScenario.node[30].nic.mac1609_4 	SentPackets 	0
scalar IntersectionExampleScenario.node[30].nic.mac1609_4 	SNIRLostPackets 	0
scalar IntersectionExampleScenario.node[30].nic.mac1609_4 	RXTXLostPackets 	0
scalar IntersectionExampleScenario.node[30].nic.mac1609_4 	TotalLostPackets 	0
scalar IntersectionExampleScenario.node[30].nic.mac1609_4 	DroppedPacketsInMac 	0
scalar IntersectionExampleScenario.node[30].nic.mac1609_4 	TooLittleTime 	0
scalar IntersectionExampleScenario.node[30].nic.mac1609_4 	TimesIntoBackoff 	0
scalar IntersectionExampleScenario.node[30].nic.mac1609_4 	SlotsBackoff 	0
scalar IntersectionExampleScenario.node[30].nic.mac1609_4 	NumInternalContention 	0
scalar IntersectionExampleScenario.node[30].nic.mac1609_4 	totalBusyTime 	0
scalar IntersectionExampleScenario.node[30].veinsmobility 	startTime 	95
scalar IntersectionExampleScenario.node[30].veinsmobility 	totalTime 	39.25
scalar IntersectionExampleScenario.node[30].veinsmobility 	stopTime 	134.5
scalar IntersectionExampleScenario.node[30].veinsmobility 	minSpeed 	5.6500000953674
scalar IntersectionExampleScenario.node[30].veinsmobility 	maxSpeed 	15.567113876343
scalar IntersectionExampleScenario.node[30].veinsmobility 	totalDistance 	551.02356467445
scalar IntersectionExampleScenario.node[30].veinsmobility 	totalCO2Emission 	123.96389081425
scalar IntersectionExampleScenario.node[19].appl 	VehicleRemoved 	0
scalar IntersectionExampleScenario.node[19].appl 	ArrivedAtDest 	1
scalar IntersectionExampleScenario.node[19].appl 	IntersectionEnterTime 	53.25
scalar IntersectionExampleScenario.node[19].appl 	IntersectionExitTime 	124.2583986934
scalar IntersectionExampleScenario.node[19].appl 	NumberOfCollisions 	0
scalar IntersectionExampleScenario.node[19].nic.phy80211p 	busyTime 	0
scalar IntersectionExampleScenario.node[19].nic.mac1609_4 	ReceivedUnicastPackets 	0
scalar IntersectionExampleScenario.node[19].nic.mac1609_4 	ReceivedBroadcasts 	0
scalar IntersectionExampleScenario.node[19].nic.mac1609_4 	SentPackets 	0
scalar IntersectionExampleScenario.node[19].nic.mac1609_4 	SNIRLostPackets 	0
scalar IntersectionExampleScenario.node[19].nic.mac1609_4 	RXTXLostPackets 	0
scalar IntersectionExampleScenario.node[19].nic.mac1609_4 	TotalLostPackets 	0
scalar IntersectionExampleScenario.node[19].nic.mac1609_4 	DroppedPacketsInMac 	0
scalar IntersectionExampleScenario.node[19].nic.mac1609_4 	TooLittleTime 	0
scalar IntersectionExampleScenario.node[19].nic.mac1609_4 	TimesIntoBackoff 	0
scalar IntersectionExampleScenario.node[19].nic.mac1609_4 	SlotsBackoff 	0
scalar IntersectionExampleScenario.node[19].nic.mac1609_4 	NumInternalContention 	0
scalar IntersectionExampleScenario.node[19].nic.mac1609_4 	totalBusyTime 	0
scalar IntersectionExampleScenario.node[19].veinsmobility 	startTime 	53.25
scalar IntersectionExampleScenario.node[19].veinsmobility 	totalTime 	87
scalar IntersectionExampleScenario.node[19].veinsmobility 	stopTime 	140.5
scalar IntersectionExampleScenario.node[19].veinsmobility 	minSpeed 	0
scalar IntersectionExampleScenario.node[19].veinsmobility 	maxSpeed 	15.64999961853
scalar IntersectionExampleScenario.node[19].veinsmobility 	totalDistance 	550.51123155704
scalar IntersectionExampleScenario.node[19].veinsmobility 	totalCO2Emission 	189.1636531942
scalar IntersectionExampleScenario.node[29].appl 	VehicleRemoved 	0
scalar IntersectionExampleScenario.node[29].appl 	ArrivedAtDest 	1
scalar IntersectionExampleScenario.node[29].appl 	IntersectionEnterTime 	94
scalar IntersectionExampleScenario.node[29].appl 	IntersectionExitTime 	125.56592221215
scalar IntersectionExampleScenario.node[29].appl 	NumberOfCollisions 	0
scalar IntersectionExampleScenario.node[29].nic.phy80211p 	busyTime 	0
scalar IntersectionExampleScenario.node[29].nic.mac1609_4 	ReceivedUnicastPackets 	0
scalar IntersectionExampleScenario.node[29].nic.mac1609_4 	ReceivedBroadcasts 	0
scalar IntersectionExampleScenario.node[29].nic.mac1609_4 	SentPackets 	0
scalar IntersectionExampleScenario.node[29].nic.mac1609_4 	SNIRLostPackets 	0
scalar IntersectionExampleScenario.node[29].nic.mac1609_4 	RXTXLostPackets 	0
scalar IntersectionExampleScenario.node[29].nic.mac1609_4 	TotalLostPackets 	0
scalar IntersectionExampleScenario.node[29].nic.mac1609_4 	DroppedPacketsInMac 	0
scalar IntersectionExampleScenario.node[29].nic.mac1609_4 	TooLittleTime 	0
scalar IntersectionExampleScenario.node[29].nic.mac1609_4 	TimesIntoBackoff 	0
scalar IntersectionExampleScenario.node[29].nic.mac1609_4 	SlotsBackoff 	0
scalar IntersectionExampleScenario.node[29].nic.mac1609_4 	NumInternalContention 	0
scalar IntersectionExampleScenario.node[29].nic.mac1609_4 	totalBusyTime 	0
scalar IntersectionExampleScenario.node[29].veinsmobility 	startTime 	94
scalar IntersectionExampleScenario.node[29].veinsmobility 	totalTime 	47
scalar IntersectionExampleScenario.node[29].veinsmobility 	stopTime 	141.25
scalar IntersectionExampleScenario.node[29].veinsmobility 	minSpeed 	1.8037118911743
scalar IntersectionExampleScenario.node[29].veinsmobility 	maxSpeed 	16.125
scalar IntersectionExampleScenario.node[29].veinsmobility 	totalDistance 	552.31644439697
scalar IntersectionExampleScenario.node[29].veinsmobility 	totalCO2Emission 	138.90816950157
scalar IntersectionExampleScenario.node[33].appl 	VehicleRemoved 	0
scalar IntersectionExampleScenario.node[33].appl 	ArrivedAtDest 	1
scalar IntersectionExampleScenario.node[33].appl 	IntersectionEnterTime 	105
scalar IntersectionExampleScenario.node[33].appl 	IntersectionExitTime 	129.36241512388
scalar IntersectionExampleScenario.node[33].appl 	NumberOfCollisions 	0
scalar IntersectionExampleScenario.node[33].nic.phy80211p 	busyTime 	0
scalar IntersectionExampleScenario.node[33].nic.mac1609_4 	ReceivedUnicastPackets 	0
scalar IntersectionExampleScenario.node[33].nic.mac1609_4 	ReceivedBroadcasts 	0
scalar IntersectionExampleScenario.node[33].nic.mac1609_4 	SentPackets 	0
scalar IntersectionExampleScenario.node[33].nic.mac1609_4 	SNIRLostPackets 	0
scalar IntersectionExampleScenario.node[33].nic.mac1609_4 	RXTXLostPackets 	0
scalar IntersectionExampleScenario.node[33].nic.mac1609_4 	TotalLostPackets 	0
scalar IntersectionExampleScenario.node[33].nic.mac1609_4 	DroppedPacketsInMac 	0
scalar IntersectionExampleScenario.node[33].nic.mac1609_4 	TooLittleTime 	0
scalar IntersectionExampleScenario.node[33].nic.mac1609_4 	TimesIntoBackoff 	0
scalar IntersectionExampleScenario.node[33].nic.mac1609_4 	SlotsBackoff 	0
scalar IntersectionExampleScenario.node[33].nic.mac1609_4 	NumInternalContention 	0
scalar IntersectionExampleScenario.node[33].nic.mac1609_4 	totalBusyTime 	0
scalar IntersectionExampleScenario.node[33].veinsmobility 	startTime 	105
scalar IntersectionExampleScenario.node[33].veinsmobility 	totalTime 	41.5
scalar IntersectionExampleScenario.node[33].veinsmobility 	stopTime 	146.75
scalar IntersectionExampleScenario.node[33].veinsmobility 	minSpeed 	5.6500000953674
scalar IntersectionExampleScenario.node[33].veinsmobility 	maxSpeed 	14.39999961853
scalar IntersectionExampleScenario.node[33].veinsmobility 	totalDistance 	551.5955581665
scalar IntersectionExampleScenario.node[33].veinsmobility 	totalCO2Emission 	114.63597904119
scalar IntersectionExampleScenario.node[34].appl 	VehicleRemoved 	0
scalar IntersectionExampleScenario.node[34].appl 	ArrivedAtDest 	1
scalar IntersectionExampleScenario.node[34].appl 	IntersectionEnterTime 	105.25
scalar IntersectionExampleScenario.node[34].appl 	IntersectionExitTime 	131.61609286844
scalar IntersectionExampleScenario.node[34].appl 	NumberOfCollisions 	0
scalar IntersectionExampleScenario.node[34].nic.phy80211p 	busyTime 	0
scalar IntersectionExampleScenario.node[34].nic.mac1609_4 	ReceivedUnicastPackets 	0
scalar IntersectionExampleScenario.node[34].nic.mac1609_4 	ReceivedBroadcasts 	0
scalar IntersectionExampleScenario.node[34].nic.mac1609_4 	SentPackets 	0
scalar IntersectionExampleScenario.node[34].nic.mac1609_4 	SNIRLostPackets 	0
scalar IntersectionExampleScenario.node[34].nic.mac1609_4 	RXTXLostPackets 	0
scalar IntersectionExampleScenario.node[34].nic.mac1609_4 	TotalLostPackets 	0
scalar IntersectionExampleScenario.node[34].nic.mac1609_4 	DroppedPacketsInMac 	0
scalar IntersectionExampleScenario.node[34].nic.mac1609_4 	TooLittleTime 	0
scalar IntersectionExampleScenario.node[34].nic.mac1609_4 	TimesIntoBackoff 	0
scalar IntersectionExampleScenario.node[34].nic.mac1609_4 	SlotsBackoff 	0
scalar IntersectionExampleScenario.node[34].nic.mac1609_4 	NumInternalContention 	0
scalar IntersectionExampleScenario.node[34].nic.mac1609_4 	totalBusyTime 	0
scalar IntersectionExampleScenario.node[34].veinsmobility 	startTime 	105.25
scalar IntersectionExampleScenario.node[34].veinsmobility 	totalTime 	43.25
scalar IntersectionExampleScenario.node[34].veinsmobility 	stopTime 	148.75
scalar IntersectionExampleScenario.node[34].veinsmobility 	minSpeed 	5.6500000953674
scalar IntersectionExampleScenario.node[34].veinsmobility 	maxSpeed 	15.25
scalar IntersectionExampleScenario.node[34].veinsmobility 	totalDistance 	570.68904050834
scalar IntersectionExampleScenario.node[34].veinsmobility 	totalCO2Emission 	134.19813946381
scalar IntersectionExampleScenario.node[35].appl 	VehicleRemoved 	0
scalar IntersectionExampleScenario.node[35].appl 	ArrivedAtDest 	1
scalar IntersectionExampleScenario.node[35].appl 	IntersectionEnterTime 	107
scalar IntersectionExampleScenario.node[35].appl 	IntersectionExitTime 	133.32329539806
scalar IntersectionExampleScenario.node[35].appl 	NumberOfCollisions 	0
scalar IntersectionExampleScenario.node[35].nic.phy80211p 	busyTime 	0
scalar IntersectionExampleScenario.node[35].nic.mac1609_4 	ReceivedUnicastPackets 	0
scalar IntersectionExampleScenario.node[35].nic.mac1609_4 	ReceivedBroadcasts 	0
scalar IntersectionExampleScenario.node[35].nic.mac1609_4 	SentPackets 	0
scalar IntersectionExampleScenario.node[35].nic.mac1609_4 	SNIRLostPackets 	0
scalar IntersectionExampleScenario.node[35].nic.mac1609_4 	RXTXLostPackets 	0
scalar IntersectionExampleScenario.node[35].nic.mac1609_4 	TotalLostPackets 	0
scalar IntersectionExampleScenario.node[35].nic.mac1609_4 	DroppedPacketsInMac 	0
scalar IntersectionExampleScenario.node[35].nic.mac1609_4 	TooLittleTime 	0
scalar IntersectionExampleScenario.node[35].nic.mac1609_4 	TimesIntoBackoff 	0
scalar IntersectionExampleScenario.node[35].nic.mac1609_4 	SlotsBackoff 	0
scalar IntersectionExampleScenario.node[35].nic.mac1609_4 	NumInternalContention 	0
scalar IntersectionExampleScenario.node[35].nic.mac1609_4 	totalBusyTime 	0
scalar IntersectionExampleScenario.node[35].veinsmobility 	startTime 	107
scalar IntersectionExampleScenario.node[35].veinsmobility 	totalTime 	42.5
scalar IntersectionExampleScenario.node[35].veinsmobility 	stopTime 	149.75
scalar IntersectionExampleScenario.node[35].veinsmobility 	minSpeed 	5.6500000953674
scalar IntersectionExampleScenario.node[35].veinsmobility 	maxSpeed 	16.41580581665
scalar IntersectionExampleScenario.node[35].veinsmobility 	totalDistance 	575.92505273453
scalar IntersectionExampleScenario.node[35].veinsmobility 	totalCO2Emission 	140.63581183657
scalar IntersectionExampleScenario.node[39].appl 	VehicleRemoved 	0
scalar IntersectionExampleScenario.node[39].appl 	ArrivedAtDest 	1
scalar IntersectionExampleScenario.node[39].appl 	IntersectionEnterTime 	113.25
scalar IntersectionExampleScenario.node[39].appl 	IntersectionExitTime 	135.83598194638
scalar IntersectionExampleScenario.node[39].appl 	NumberOfCollisions 	0
scalar IntersectionExampleScenario.node[39].nic.phy80211p 	busyTime 	0
scalar IntersectionExampleScenario.node[39].nic.mac1609_4 	ReceivedUnicastPackets 	0
scalar IntersectionExampleScenario.node[39].nic.mac1609_4 	ReceivedBroadcasts 	0
scalar IntersectionExampleScenario.node[39].nic.mac1609_4 	SentPackets 	0
scalar IntersectionExampleScenario.node[39].nic.mac1609_4 	SNIRLostPackets 	0
scalar IntersectionExampleScenario.node[39].nic.mac1609_4 	RXTXLostPackets 	0
scalar IntersectionExampleScenario.node[39].nic.mac1609_4 	TotalLostPackets 	0
scalar IntersectionExampleScenario.node[39].nic.mac1609_4 	DroppedPacketsInMac 	0
scalar IntersectionExampleScenario.node[39].nic.mac1609_4 	TooLittleTime 	0
scalar IntersectionExampleScenario.node[39].nic.mac1609_4 	TimesIntoBackoff 	0
scalar IntersectionExampleScenario.node[39].nic.mac1609_4 	SlotsBackoff 	0
scalar IntersectionExampleScenario.node[39].nic.mac1609_4 	NumInternalContention 	0
scalar IntersectionExampleScenario.node[39].nic.mac1609_4 	totalBusyTime 	0
scalar IntersectionExampleScenario.node[39].veinsmobility 	startTime 	113.25
scalar IntersectionExampleScenario.node[39].veinsmobility 	totalTime 	38
scalar IntersectionExampleScenario.node[39].veinsmobility 	stopTime 	151.5
scalar IntersectionExampleScenario.node[39].veinsmobility 	minSpeed 	5.6500000953674
scalar IntersectionExampleScenario.node[39].veinsmobility 	maxSpeed 	16.347467422485
scalar IntersectionExampleScenario.node[39].veinsmobility 	totalDistance 	556.93077087402
scalar IntersectionExampleScenario.node[39].veinsmobility 	totalCO2Emission 	128.4131229972
scalar IntersectionExampleScenario.node[25].appl 	VehicleRemoved 	0
scalar IntersectionExampleScenario.node[25].appl 	ArrivedAtDest 	1
scalar IntersectionExampleScenario.node[25].appl 	IntersectionEnterTime 	81
scalar IntersectionExampleScenario.node[25].appl 	IntersectionExitTime 	138.52633478187
scalar IntersectionExampleScenario.node[25].appl 	NumberOfCollisions 	0
scalar IntersectionExampleScenario.node[25].nic.phy80211p 	busyTime 	0
scalar IntersectionExampleScenario.node[25].nic.mac1609_4 	ReceivedUnicastPackets 	0
scalar IntersectionExampleScenario.node[25].nic.mac1609_4 	ReceivedBroadcasts 	0
scalar IntersectionExampleScenario.node[25].nic.mac1609_4 	SentPackets 	0
scalar IntersectionExampleScenario.node[25].nic.mac1609_4 	SNIRLostPackets 	0
scalar IntersectionExampleScenario.node[25].nic.mac1609_4 	RXTXLostPackets 	0
scalar IntersectionExampleScenario.node[25].nic.mac1609_4 	TotalLostPackets 	0
scalar IntersectionExampleScenario.node[25].nic.mac1609_4 	DroppedPacketsInMac 	0
scalar IntersectionExampleScenario.node[25].nic.mac1609_4 	TooLittleTime 	0
scalar IntersectionExampleScenario.node[25].nic.mac1609_4 	TimesIntoBackoff 	0
scalar IntersectionExampleScenario.node[25].nic.mac1609_4 	SlotsBackoff 	0
scalar IntersectionExampleScenario.node[25].nic.mac1609_4 	NumInternalContention 	0
scalar IntersectionExampleScenario.node[25].nic.mac1609_4 	totalBusyTime 	0
scalar IntersectionExampleScenario.node[25].veinsmobility 	startTime 	81
scalar IntersectionExampleScenario.node[25].veinsmobility 	totalTime 	74.75
scalar IntersectionExampleScenario.node[25].veinsmobility 	stopTime 	156
scalar IntersectionExampleScenario.node[25].veinsmobility 	minSpeed 	0
scalar IntersectionExampleScenario.node[25].veinsmobility 	maxSpeed 	15.25
scalar IntersectionExampleScenario.node[25].veinsmobility 	totalDistance 	570.96063901336
scalar IntersectionExampleScenario.node[25].veinsmobility 	totalCO2Emission 	164.37989632675
scalar IntersectionExampleScenario.node[31].appl 	VehicleRemoved 	0
scalar IntersectionExampleScenario.node[31].appl 	ArrivedAtDest 	1
scalar IntersectionExampleScenario.node[31].appl 	IntersectionEnterTime 	98.5
scalar IntersectionExampleScenario.node[31].appl 	IntersectionExitTime 	141.0873263363
scalar IntersectionExampleScenario.node[31].appl 	NumberOfCollisions 	0
scalar IntersectionExampleScenario.node[31].nic.phy80211p 	busyTime 	0
scalar IntersectionExampleScenario.node[31].nic.mac1609_4 	ReceivedUnicastPackets 	0
scalar IntersectionExampleScenario.node[31].nic.mac1609_4 	ReceivedBroadcasts 	0
scalar IntersectionExampleScenario.node[31].nic.mac1609_4 	SentPackets 	0
scalar IntersectionExampleScenario.node[31].nic.mac1609_4 	SNIRLostPackets 	0
scalar IntersectionExampleScenario.node[31].nic.mac1609_4 	RXTXLostPackets 	0
scalar IntersectionExampleScenario.node[31].nic.mac1609_4 	TotalLostPackets 	0
scalar IntersectionExampleScenario.node[31].nic.mac1609_4 	DroppedPacketsInMac 	0
scalar IntersectionExampleScenario.node[31].nic.mac1609_4 	TooLittleTime 	0
scalar IntersectionExampleScenario.node[31].nic.mac1609_4 	TimesIntoBackoff 	0
scalar IntersectionExampleScenario.node[31].nic.mac1609_4 	SlotsBackoff 	0
scalar IntersectionExampleScenario.node[31].nic.mac1609_4 	NumInternalContention 	0
scalar IntersectionExampleScenario.node[31].nic.mac1609_4 	totalBusyTime 	0
scalar IntersectionExampleScenario.node[31].veinsmobility 	startTime 	98.5
scalar IntersectionExampleScenario.node[31].veinsmobility 	totalTime 	59.75
scalar IntersectionExampleScenario.node[31].veinsmobility 	stopTime 	158.5
scalar IntersectionExampleScenario.node[31].veinsmobility 	minSpeed 	0
scalar IntersectionExampleScenario.node[31].veinsmobility 	maxSpeed 	15.122897148132
scalar IntersectionExampleScenario.node[31].veinsmobility 	totalDistance 	544.71616462566
scalar IntersectionExampleScenario.node[31].veinsmobility 	totalCO2Emission 	144.47748723438
scalar IntersectionExampleScenario.node[32].appl 	VehicleRemoved 	0
scalar IntersectionExampleScenario.node[32].appl 	ArrivedAtDest 	1
scalar IntersectionExampleScenario.node[32].appl 	IntersectionEnterTime 	100
scalar IntersectionExampleScenario.node[32].appl 	IntersectionExitTime 	143.27923750787
scalar IntersectionExampleScenario.node[32].appl 	NumberOfCollisions 	0
scalar IntersectionExampleScenario.node[32].nic.phy80211p 	busyTime 	0
scalar IntersectionExampleScenario.node[32].nic.mac1609_4 	ReceivedUnicastPackets 	0
scalar IntersectionExampleScenario.node[32].nic.mac1609_4 	ReceivedBroadcasts 	0
scalar IntersectionExampleScenario.node[32].nic.mac1609_4 	SentPackets 	0
scalar IntersectionExampleScenario.node[32].nic.mac1609_4 	SNIRLostPackets 	0
scalar IntersectionExampleScenario.node[32].nic.mac1609_4 	RXTXLostPackets 	0
scalar IntersectionExampleScenario.node[32].nic.mac1609_4 	TotalLostPackets 	0
scalar IntersectionExampleScenario.node[32].nic.mac1609_4 	DroppedPacketsInMac 	0
scalar IntersectionExampleScenario.node[32].nic.mac1609_4 	TooLittleTime 	0
scalar IntersectionExampleScenario.node[32].nic.mac1609_4 	TimesIntoBackoff 	0
scalar IntersectionExampleScenario.node[32].nic.mac1609_4 	SlotsBackoff 	0
scalar IntersectionExampleScenario.node[32].nic.mac1609_4 	NumInternalContention 	0
scalar IntersectionExampleScenario.node[32].nic.mac1609_4 	totalBusyTime 	0
scalar IntersectionExampleScenario.node[32].veinsmobility 	startTime 	100
scalar IntersectionExampleScenario.node[32].veinsmobility 	totalTime 	59
scalar IntersectionExampleScenario.node[32].veinsmobility 	stopTime 	159.25
scalar IntersectionExampleScenario.node[32].veinsmobility 	minSpeed 	0
scalar IntersectionExampleScenario.node[32].veinsmobility 	maxSpeed 	15.5
scalar IntersectionExampleScenario.node[32].veinsmobility 	totalDistance 	572.00993347168
scalar IntersectionExampleScenario.node[32].veinsmobility 	totalCO2Emission 	153.15239509029
scalar IntersectionExampleScenario.node[37].appl 	VehicleRemoved 	0
scalar IntersectionExampleScenario.node[37].appl 	ArrivedAtDest 	1
scalar IntersectionExampleScenario.node[37].appl 	IntersectionEnterTime 	109.75
scalar IntersectionExampleScenario.node[37].appl 	IntersectionExitTime 	145.09239218922
scalar IntersectionExampleScenario.node[37].appl 	NumberOfCollisions 	0
scalar IntersectionExampleScenario.node[37].nic.phy80211p 	busyTime 	0
scalar IntersectionExampleScenario.node[37].nic.mac1609_4 	ReceivedUnicastPackets 	0
scalar IntersectionExampleScenario.node[37].nic.mac1609_4 	ReceivedBroadcasts 	0
scalar IntersectionExampleScenario.node[37].nic.mac1609_4 	SentPackets 	0
scalar IntersectionExampleScenario.node[37].nic.mac1609_4 	SNIRLostPackets 	0
scalar IntersectionExampleScenario.node[37].nic.mac1609_4 	RXTXLostPackets 	0
scalar IntersectionExampleScenario.node[37].nic.mac1609_4 	TotalLostPackets 	0
scalar IntersectionExampleScenario.node[37].nic.mac1609_4 	DroppedPacketsInMac 	0
scalar IntersectionExampleScenario.node[37].nic.mac1609_4 	TooLittleTime 	0
scalar IntersectionExampleScenario.node[37].nic.mac1609_4 	TimesIntoBackoff 	0
scalar IntersectionExampleScenario.node[37].nic.mac1609_4 	SlotsBackoff 	0
scalar IntersectionExampleScenario.node[37].nic.mac1609_4 	NumInternalContention 	0
scalar IntersectionExampleScenario.node[37].nic.mac1609_4 	totalBusyTime 	0
scalar IntersectionExampleScenario.node[37].veinsmobility 	startTime 	109.75
scalar IntersectionExampleScenario.node[37].veinsmobility 	totalTime 	51
scalar IntersectionExampleScenario.node[37].veinsmobility 	stopTime 	161
scalar IntersectionExampleScenario.node[37].veinsmobility 	minSpeed 	2.0688240528107
scalar IntersectionExampleScenario.node[37].veinsmobility 	maxSpeed 	16.27499961853
scalar IntersectionExampleScenario.node[37].veinsmobility 	totalDistance 	554.67170715332
scalar IntersectionExampleScenario.node[37].veinsmobility 	totalCO2Emission 	142.51569683923
scalar IntersectionExampleScenario.node[41].appl 	VehicleRemoved 	0
scalar IntersectionExampleScenario.node[41].appl 	ArrivedAtDest 	1
scalar IntersectionExampleScenario.node[41].appl 	IntersectionEnterTime 	113.5
scalar IntersectionExampleScenario.node[41].appl 	IntersectionExitTime 	147.29609323604
scalar IntersectionExampleScenario.node[41].appl 	NumberOfCollisions 	0
scalar IntersectionExampleScenario.node[41].nic.phy80211p 	busyTime 	0
scalar IntersectionExampleScenario.node[41].nic.mac1609_4 	ReceivedUnicastPackets 	0
scalar IntersectionExampleScenario.node[41].nic.mac1609_4 	ReceivedBroadcasts 	0
scalar IntersectionExampleScenario.node[41].nic.mac1609_4 	SentPackets 	0
scalar IntersectionExampleScenario.node[41].nic.mac1609_4 	SNIRLostPackets 	0
scalar IntersectionExampleScenario.node[41].nic.mac1609_4 	RXTXLostPackets 	0
scalar IntersectionExampleScenario.node[41].nic.mac1609_4 	TotalLostPackets 	0
scalar IntersectionExampleScenario.node[41].nic.mac1609_4 	DroppedPacketsInMac 	0
scalar IntersectionExampleScenario.node[41].nic.mac1609_4 	TooLittleTime 	0
scalar IntersectionExampleScenario.node[41].nic.mac1609_4 	TimesIntoBackoff 	0
scalar IntersectionExampleScenario.node[41].nic.mac1609_4 	SlotsBackoff 	0
scalar IntersectionExampleScenario.node[41].nic.mac1609_4 	NumInternalContention 	0
scalar IntersectionExampleScenario.node[41].nic.mac1609_4 	totalBusyTime 	0
scalar IntersectionExampleScenario.node[41].veinsmobility 	startTime 	113.5
scalar IntersectionExampleScenario.node[41].veinsmobility 	totalTime 	50.25
scalar IntersectionExampleScenario.node[41].veinsmobility 	stopTime 	164
scalar IntersectionExampleScenario.node[41].veinsmobility 	minSpeed 	2.8070631027222
scalar IntersectionExampleScenario.node[41].veinsmobility 	maxSpeed 	15.64999961853
scalar IntersectionExampleScenario.node[41].veinsmobility 	totalDistance 	551.57948048263
scalar IntersectionExampleScenario.node[41].veinsmobility 	totalCO2Emission 	143.70849079545
scalar IntersectionExampleScenario.node[36].appl 	VehicleRemoved 	0
scalar IntersectionExampleScenario.node[36].appl 	ArrivedAtDest 	1
scalar IntersectionExampleScenario.node[36].appl 	IntersectionEnterTime 	109.25
scalar IntersectionExampleScenario.node[36].appl 	IntersectionExitTime 	152.52101551532
scalar IntersectionExampleScenario.node[36].appl 	NumberOfCollisions 	0
scalar IntersectionExampleScenario.node[36].nic.phy80211p 	busyTime 	0
scalar IntersectionExampleScenario.node[36].nic.mac1609_4 	ReceivedUnicastPackets 	0
scalar IntersectionExampleScenario.node[36].nic.mac1609_4 	ReceivedBroadcasts 	0
scalar IntersectionExampleScenario.node[36].nic.mac1609_4 	SentPackets 	0
scalar IntersectionExampleScenario.node[36].nic.mac1609_4 	SNIRLostPackets 	0
scalar IntersectionExampleScenario.node[36].nic.mac1609_4 	RXTXLostPackets 	0
scalar IntersectionExampleScenario.node[36].nic.mac1609_4 	TotalLostPackets 	0
scalar IntersectionExampleScenario.node[36].nic.mac1609_4 	DroppedPacketsInMac 	0
scalar IntersectionExampleScenario.node[36].nic.mac1609_4 	TooLittleTime 	0
scalar IntersectionExampleScenario.node[36].nic.mac1609_4 	TimesIntoBackoff 	0
scalar IntersectionExampleScenario.node[36].nic.mac1609_4 	SlotsBackoff 	0
[...]
scalar IntersectionExampleScenario.node[550].veinsmobility 	totalDistance 	281.0126953125
scalar IntersectionExampleScenario.node[550].veinsmobility 	totalCO2Emission 	81.942642892523
scalar IntersectionExampleScenario.node[551].appl 	VehicleRemoved 	0
scalar IntersectionExampleScenario.node[551].appl 	ArrivedAtDest 	0
scalar IntersectionExampleScenario.node[551].appl 	IntersectionEnterTime 	1767.75
scalar IntersectionExampleScenario.node[551].appl 	IntersectionExitTime 	-1
scalar IntersectionExampleScenario.node[551].appl 	NumberOfCollisions 	0
scalar IntersectionExampleScenario.node[551].nic.phy80211p 	busyTime 	0
scalar IntersectionExampleScenario.node[551].nic.mac1609_4 	ReceivedUnicastPackets 	0
scalar IntersectionExampleScenario.node[551].nic.mac1609_4 	ReceivedBroadcasts 	0
scalar IntersectionExampleScenario.node[551].nic.mac1609_4 	SentPackets 	0
scalar IntersectionExampleScenario.node[551].nic.mac1609_4 	SNIRLostPackets 	0
scalar IntersectionExampleScenario.node[551].nic.mac1609_4 	RXTXLostPackets 	0
scalar IntersectionExampleScenario.node[551].nic.mac1609_4 	TotalLostPackets 	0
scalar IntersectionExampleScenario.node[551].nic.mac1609_4 	DroppedPacketsInMac 	0
scalar IntersectionExampleScenario.node[551].nic.mac1609_4 	TooLittleTime 	0
scalar IntersectionExampleScenario.node[551].nic.mac1609_4 	TimesIntoBackoff 	0
scalar IntersectionExampleScenario.node[551].nic.mac1609_4 	SlotsBackoff 	0
scalar IntersectionExampleScenario.node[551].nic.mac1609_4 	NumInternalContention 	0
scalar IntersectionExampleScenario.node[551].nic.mac1609_4 	totalBusyTime 	0
scalar IntersectionExampleScenario.node[551].veinsmobility 	startTime 	1767.75
scalar IntersectionExampleScenario.node[551].veinsmobility 	totalTime 	32.25
scalar IntersectionExampleScenario.node[551].veinsmobility 	stopTime 	1800
scalar IntersectionExampleScenario.node[551].veinsmobility 	minSpeed 	0
scalar IntersectionExampleScenario.node[551].veinsmobility 	maxSpeed 	15.64999961853
scalar IntersectionExampleScenario.node[551].veinsmobility 	totalDistance 	273.60531616211
scalar IntersectionExampleScenario.node[551].veinsmobility 	totalCO2Emission 	73.305234219663
scalar IntersectionExampleScenario.node[552].appl 	VehicleRemoved 	0
scalar IntersectionExampleScenario.node[552].appl 	ArrivedAtDest 	0
scalar IntersectionExampleScenario.node[552].appl 	IntersectionEnterTime 	1773
scalar IntersectionExampleScenario.node[552].appl 	IntersectionExitTime 	-1
scalar IntersectionExampleScenario.node[552].appl 	NumberOfCollisions 	0
scalar IntersectionExampleScenario.node[552].nic.phy80211p 	busyTime 	0
scalar IntersectionExampleScenario.node[552].nic.mac1609_4 	ReceivedUnicastPackets 	0
scalar IntersectionExampleScenario.node[552].nic.mac1609_4 	ReceivedBroadcasts 	0
scalar IntersectionExampleScenario.node[552].nic.mac1609_4 	SentPackets 	0
scalar IntersectionExampleScenario.node[552].nic.mac1609_4 	SNIRLostPackets 	0
scalar IntersectionExampleScenario.node[552].nic.mac1609_4 	RXTXLostPackets 	0
scalar IntersectionExampleScenario.node[552].nic.mac1609_4 	TotalLostPackets 	0
scalar IntersectionExampleScenario.node[552].nic.mac1609_4 	DroppedPacketsInMac 	0
scalar IntersectionExampleScenario.node[552].nic.mac1609_4 	TooLittleTime 	0
scalar IntersectionExampleScenario.node[552].nic.mac1609_4 	TimesIntoBackoff 	0
scalar IntersectionExampleScenario.node[552].nic.mac1609_4 	SlotsBackoff 	0
scalar IntersectionExampleScenario.node[552].nic.mac1609_4 	NumInternalContention 	0
scalar IntersectionExampleScenario.node[552].nic.mac1609_4 	totalBusyTime 	0
scalar IntersectionExampleScenario.node[552].veinsmobility 	startTime 	1773
scalar IntersectionExampleScenario.node[552].veinsmobility 	totalTime 	27
scalar IntersectionExampleScenario.node[552].veinsmobility 	stopTime 	1800
scalar IntersectionExampleScenario.node[552].veinsmobility 	minSpeed 	2.0272438526154
scalar IntersectionExampleScenario.node[552].veinsmobility 	maxSpeed 	15.02499961853
scalar IntersectionExampleScenario.node[552].veinsmobility 	totalDistance 	261.18856811523
scalar IntersectionExampleScenario.node[552].veinsmobility 	totalCO2Emission 	61.907736622109
scalar IntersectionExampleScenario.node[553].appl 	VehicleRemoved 	0
scalar IntersectionExampleScenario.node[553].appl 	ArrivedAtDest 	0
scalar IntersectionExampleScenario.node[553].appl 	IntersectionEnterTime 	1774.5
scalar IntersectionExampleScenario.node[553].appl 	IntersectionExitTime 	1797.2705571819
scalar IntersectionExampleScenario.node[553].appl 	NumberOfCollisions 	0
scalar IntersectionExampleScenario.node[553].nic.phy80211p 	busyTime 	0
scalar IntersectionExampleScenario.node[553].nic.mac1609_4 	ReceivedUnicastPackets 	0
scalar IntersectionExampleScenario.node[553].nic.mac1609_4 	ReceivedBroadcasts 	0
scalar IntersectionExampleScenario.node[553].nic.mac1609_4 	SentPackets 	0
scalar IntersectionExampleScenario.node[553].nic.mac1609_4 	SNIRLostPackets 	0
scalar IntersectionExampleScenario.node[553].nic.mac1609_4 	RXTXLostPackets 	0
scalar IntersectionExampleScenario.node[553].nic.mac1609_4 	TotalLostPackets 	0
scalar IntersectionExampleScenario.node[553].nic.mac1609_4 	DroppedPacketsInMac 	0
scalar IntersectionExampleScenario.node[553].nic.mac1609_4 	TooLittleTime 	0
scalar IntersectionExampleScenario.node[553].nic.mac1609_4 	TimesIntoBackoff 	0
scalar IntersectionExampleScenario.node[553].nic.mac1609_4 	SlotsBackoff 	0
scalar IntersectionExampleScenario.node[553].nic.mac1609_4 	NumInternalContention 	0
scalar IntersectionExampleScenario.node[553].nic.mac1609_4 	totalBusyTime 	0
scalar IntersectionExampleScenario.node[553].veinsmobility 	startTime 	1774.5
scalar IntersectionExampleScenario.node[553].veinsmobility 	totalTime 	25.5
scalar IntersectionExampleScenario.node[553].veinsmobility 	stopTime 	1800
scalar IntersectionExampleScenario.node[553].veinsmobility 	minSpeed 	5.6500000953674
scalar IntersectionExampleScenario.node[553].veinsmobility 	maxSpeed 	16.27499961853
scalar IntersectionExampleScenario.node[553].veinsmobility 	totalDistance 	344.64347446779
scalar IntersectionExampleScenario.node[553].veinsmobility 	totalCO2Emission 	99.749245221162
scalar IntersectionExampleScenario.node[554].appl 	VehicleRemoved 	0
scalar IntersectionExampleScenario.node[554].appl 	ArrivedAtDest 	0
scalar IntersectionExampleScenario.node[554].appl 	IntersectionEnterTime 	1775
scalar IntersectionExampleScenario.node[554].appl 	IntersectionExitTime 	-1
scalar IntersectionExampleScenario.node[554].appl 	NumberOfCollisions 	0
scalar IntersectionExampleScenario.node[554].nic.phy80211p 	busyTime 	0
scalar IntersectionExampleScenario.node[554].nic.mac1609_4 	ReceivedUnicastPackets 	0
scalar IntersectionExampleScenario.node[554].nic.mac1609_4 	ReceivedBroadcasts 	0
scalar IntersectionExampleScenario.node[554].nic.mac1609_4 	SentPackets 	0
scalar IntersectionExampleScenario.node[554].nic.mac1609_4 	SNIRLostPackets 	0
scalar IntersectionExampleScenario.node[554].nic.mac1609_4 	RXTXLostPackets 	0
scalar IntersectionExampleScenario.node[554].nic.mac1609_4 	TotalLostPackets 	0
scalar IntersectionExampleScenario.node[554].nic.mac1609_4 	DroppedPacketsInMac 	0
scalar IntersectionExampleScenario.node[554].nic.mac1609_4 	TooLittleTime 	0
scalar IntersectionExampleScenario.node[554].nic.mac1609_4 	TimesIntoBackoff 	0
scalar IntersectionExampleScenario.node[554].nic.mac1609_4 	SlotsBackoff 	0
scalar IntersectionExampleScenario.node[554].nic.mac1609_4 	NumInternalContention 	0
scalar IntersectionExampleScenario.node[554].nic.mac1609_4 	totalBusyTime 	0
scalar IntersectionExampleScenario.node[554].veinsmobility 	startTime 	1775
scalar IntersectionExampleScenario.node[554].veinsmobility 	totalTime 	25
scalar IntersectionExampleScenario.node[554].veinsmobility 	stopTime 	1800
scalar IntersectionExampleScenario.node[554].veinsmobility 	minSpeed 	0
scalar IntersectionExampleScenario.node[554].veinsmobility 	maxSpeed 	15.64999961853
scalar IntersectionExampleScenario.node[554].veinsmobility 	totalDistance 	287.42190551758
scalar IntersectionExampleScenario.node[554].veinsmobility 	totalCO2Emission 	68.384715305862
scalar IntersectionExampleScenario.node[555].appl 	VehicleRemoved 	0
scalar IntersectionExampleScenario.node[555].appl 	ArrivedAtDest 	0
scalar IntersectionExampleScenario.node[555].appl 	IntersectionEnterTime 	1776.25
scalar IntersectionExampleScenario.node[555].appl 	IntersectionExitTime 	-1
scalar IntersectionExampleScenario.node[555].appl 	NumberOfCollisions 	0
scalar IntersectionExampleScenario.node[555].nic.phy80211p 	busyTime 	0
scalar IntersectionExampleScenario.node[555].nic.mac1609_4 	ReceivedUnicastPackets 	0
scalar IntersectionExampleScenario.node[555].nic.mac1609_4 	ReceivedBroadcasts 	0
scalar IntersectionExampleScenario.node[555].nic.mac1609_4 	SentPackets 	0
scalar IntersectionExampleScenario.node[555].nic.mac1609_4 	SNIRLostPackets 	0
scalar IntersectionExampleScenario.node[555].nic.mac1609_4 	RXTXLostPackets 	0
scalar IntersectionExampleScenario.node[555].nic.mac1609_4 	TotalLostPackets 	0
scalar IntersectionExampleScenario.node[555].nic.mac1609_4 	DroppedPacketsInMac 	0
scalar IntersectionExampleScenario.node[555].nic.mac1609_4 	TooLittleTime 	0
scalar IntersectionExampleScenario.node[555].nic.mac1609_4 	TimesIntoBackoff 	0
scalar IntersectionExampleScenario.node[555].nic.mac1609_4 	SlotsBackoff 	0
scalar IntersectionExampleScenario.node[555].nic.mac1609_4 	NumInternalContention 	0
scalar IntersectionExampleScenario.node[555].nic.mac1609_4 	totalBusyTime 	0
scalar IntersectionExampleScenario.node[555].veinsmobility 	startTime 	1776.25
scalar IntersectionExampleScenario.node[555].veinsmobility 	totalTime 	23.75
scalar IntersectionExampleScenario.node[555].veinsmobility 	stopTime 	1800
scalar IntersectionExampleScenario.node[555].veinsmobility 	minSpeed 	2.7015242576599
scalar IntersectionExampleScenario.node[555].veinsmobility 	maxSpeed 	16.340766906738
scalar IntersectionExampleScenario.node[555].veinsmobility 	totalDistance 	265.13595581163
scalar IntersectionExampleScenario.node[555].veinsmobility 	totalCO2Emission 	65.971047712779
scalar IntersectionExampleScenario.node[556].appl 	VehicleRemoved 	0
scalar IntersectionExampleScenario.node[556].appl 	ArrivedAtDest 	0
scalar IntersectionExampleScenario.node[556].appl 	IntersectionEnterTime 	1787.5
scalar IntersectionExampleScenario.node[556].appl 	IntersectionExitTime 	-1
scalar IntersectionExampleScenario.node[556].appl 	NumberOfCollisions 	0
scalar IntersectionExampleScenario.node[556].nic.phy80211p 	busyTime 	0
scalar IntersectionExampleScenario.node[556].nic.mac1609_4 	ReceivedUnicastPackets 	0
scalar IntersectionExampleScenario.node[556].nic.mac1609_4 	ReceivedBroadcasts 	0
scalar IntersectionExampleScenario.node[556].nic.mac1609_4 	SentPackets 	0
scalar IntersectionExampleScenario.node[556].nic.mac1609_4 	SNIRLostPackets 	0
scalar IntersectionExampleScenario.node[556].nic.mac1609_4 	RXTXLostPackets 	0
scalar IntersectionExampleScenario.node[556].nic.mac1609_4 	TotalLostPackets 	0
scalar IntersectionExampleScenario.node[556].nic.mac1609_4 	DroppedPacketsInMac 	0
scalar IntersectionExampleScenario.node[556].nic.mac1609_4 	TooLittleTime 	0
scalar IntersectionExampleScenario.node[556].nic.mac1609_4 	TimesIntoBackoff 	0
scalar IntersectionExampleScenario.node[556].nic.mac1609_4 	SlotsBackoff 	0
scalar IntersectionExampleScenario.node[556].nic.mac1609_4 	NumInternalContention 	0
scalar IntersectionExampleScenario.node[556].nic.mac1609_4 	totalBusyTime 	0
scalar IntersectionExampleScenario.node[556].veinsmobility 	startTime 	1787.5
scalar IntersectionExampleScenario.node[556].veinsmobility 	totalTime 	12.5
scalar IntersectionExampleScenario.node[556].veinsmobility 	stopTime 	1800
scalar IntersectionExampleScenario.node[556].veinsmobility 	minSpeed 	5.6500000953674
scalar IntersectionExampleScenario.node[556].veinsmobility 	maxSpeed 	15.02499961853
scalar IntersectionExampleScenario.node[556].veinsmobility 	totalDistance 	167.47241210938
scalar IntersectionExampleScenario.node[556].veinsmobility 	totalCO2Emission 	48.711767731014
scalar IntersectionExampleScenario.node[557].appl 	VehicleRemoved 	0
scalar IntersectionExampleScenario.node[557].appl 	ArrivedAtDest 	0
scalar IntersectionExampleScenario.node[557].appl 	IntersectionEnterTime 	1789.25
scalar IntersectionExampleScenario.node[557].appl 	IntersectionExitTime 	-1
scalar IntersectionExampleScenario.node[557].appl 	NumberOfCollisions 	0
scalar IntersectionExampleScenario.node[557].nic.phy80211p 	busyTime 	0
scalar IntersectionExampleScenario.node[557].nic.mac1609_4 	ReceivedUnicastPackets 	0
scalar IntersectionExampleScenario.node[557].nic.mac1609_4 	ReceivedBroadcasts 	0
scalar IntersectionExampleScenario.node[557].nic.mac1609_4 	SentPackets 	0
scalar IntersectionExampleScenario.node[557].nic.mac1609_4 	SNIRLostPackets 	0
scalar IntersectionExampleScenario.node[557].nic.mac1609_4 	RXTXLostPackets 	0
scalar IntersectionExampleScenario.node[557].nic.mac1609_4 	TotalLostPackets 	0
scalar IntersectionExampleScenario.node[557].nic.mac1609_4 	DroppedPacketsInMac 	0
scalar IntersectionExampleScenario.node[557].nic.mac1609_4 	TooLittleTime 	0
scalar IntersectionExampleScenario.node[557].nic.mac1609_4 	TimesIntoBackoff 	0
scalar IntersectionExampleScenario.node[557].nic.mac1609_4 	SlotsBackoff 	0
scalar IntersectionExampleScenario.node[557].nic.mac1609_4 	NumInternalContention 	0
scalar IntersectionExampleScenario.node[557].nic.mac1609_4 	totalBusyTime 	0
scalar IntersectionExampleScenario.node[557].veinsmobility 	startTime 	1789.25
scalar IntersectionExampleScenario.node[557].veinsmobility 	totalTime 	10.75
scalar IntersectionExampleScenario.node[557].veinsmobility 	stopTime 	1800
scalar IntersectionExampleScenario.node[557].veinsmobility 	minSpeed 	5.6500000953674
scalar IntersectionExampleScenario.node[557].veinsmobility 	maxSpeed 	15.64999961853
scalar IntersectionExampleScenario.node[557].veinsmobility 	totalDistance 	143.53853607178
scalar IntersectionExampleScenario.node[557].veinsmobility 	totalCO2Emission 	46.397110122514
scalar IntersectionExampleScenario.node[558].appl 	VehicleRemoved 	0
scalar IntersectionExampleScenario.node[558].appl 	ArrivedAtDest 	0
scalar IntersectionExampleScenario.node[558].appl 	IntersectionEnterTime 	1789.75
scalar IntersectionExampleScenario.node[558].appl 	IntersectionExitTime 	-1
scalar IntersectionExampleScenario.node[558].appl 	NumberOfCollisions 	0
scalar IntersectionExampleScenario.node[558].nic.phy80211p 	busyTime 	0
scalar IntersectionExampleScenario.node[558].nic.mac1609_4 	ReceivedUnicastPackets 	0
scalar IntersectionExampleScenario.node[558].nic.mac1609_4 	ReceivedBroadcasts 	0
scalar IntersectionExampleScenario.node[558].nic.mac1609_4 	SentPackets 	0
scalar IntersectionExampleScenario.node[558].nic.mac1609_4 	SNIRLostPackets 	0
scalar IntersectionExampleScenario.node[558].nic.mac1609_4 	RXTXLostPackets 	0
scalar IntersectionExampleScenario.node[558].nic.mac1609_4 	TotalLostPackets 	0
scalar IntersectionExampleScenario.node[558].nic.mac1609_4 	DroppedPacketsInMac 	0
scalar IntersectionExampleScenario.node[558].nic.mac1609_4 	TooLittleTime 	0
scalar IntersectionExampleScenario.node[558].nic.mac1609_4 	TimesIntoBackoff 	0
scalar IntersectionExampleScenario.node[558].nic.mac1609_4 	SlotsBackoff 	0
scalar IntersectionExampleScenario.node[558].nic.mac1609_4 	NumInternalContention 	0
scalar IntersectionExampleScenario.node[558].nic.mac1609_4 	totalBusyTime 	0
scalar IntersectionExampleScenario.node[558].veinsmobility 	startTime 	1789.75
scalar IntersectionExampleScenario.node[558].veinsmobility 	totalTime 	10.25
scalar IntersectionExampleScenario.node[558].veinsmobility 	stopTime 	1800
scalar IntersectionExampleScenario.node[558].veinsmobility 	minSpeed 	5.6500000953674
scalar IntersectionExampleScenario.node[558].veinsmobility 	maxSpeed 	16.27499961853
scalar IntersectionExampleScenario.node[558].veinsmobility 	totalDistance 	141.48016357422
scalar IntersectionExampleScenario.node[558].veinsmobility 	totalCO2Emission 	49.678474661338
scalar IntersectionExampleScenario.node[559].appl 	VehicleRemoved 	0
scalar IntersectionExampleScenario.node[559].appl 	ArrivedAtDest 	0
scalar IntersectionExampleScenario.node[559].appl 	IntersectionEnterTime 	1793
scalar IntersectionExampleScenario.node[559].appl 	IntersectionExitTime 	-1
scalar IntersectionExampleScenario.node[559].appl 	NumberOfCollisions 	0
scalar IntersectionExampleScenario.node[559].nic.phy80211p 	busyTime 	0
scalar IntersectionExampleScenario.node[559].nic.mac1609_4 	ReceivedUnicastPackets 	0
scalar IntersectionExampleScenario.node[559].nic.mac1609_4 	ReceivedBroadcasts 	0
scalar IntersectionExampleScenario.node[559].nic.mac1609_4 	SentPackets 	0
scalar IntersectionExampleScenario.node[559].nic.mac1609_4 	SNIRLostPackets 	0
scalar IntersectionExampleScenario.node[559].nic.mac1609_4 	RXTXLostPackets 	0
scalar IntersectionExampleScenario.node[559].nic.mac1609_4 	TotalLostPackets 	0
scalar IntersectionExampleScenario.node[559].nic.mac1609_4 	DroppedPacketsInMac 	0
scalar IntersectionExampleScenario.node[559].nic.mac1609_4 	TooLittleTime 	0
scalar IntersectionExampleScenario.node[559].nic.mac1609_4 	TimesIntoBackoff 	0
scalar IntersectionExampleScenario.node[559].nic.mac1609_4 	SlotsBackoff 	0
scalar IntersectionExampleScenario.node[559].nic.mac1609_4 	NumInternalContention 	0
scalar IntersectionExampleScenario.node[559].nic.mac1609_4 	totalBusyTime 	0
scalar IntersectionExampleScenario.node[559].veinsmobility 	startTime 	1793
scalar IntersectionExampleScenario.node[559].veinsmobility 	totalTime 	7
scalar IntersectionExampleScenario.node[559].veinsmobility 	stopTime 	1800
scalar IntersectionExampleScenario.node[559].veinsmobility 	minSpeed 	5.6500000953674
scalar IntersectionExampleScenario.node[559].veinsmobility 	maxSpeed 	16.27499961853
scalar IntersectionExampleScenario.node[559].veinsmobility 	totalDistance 	88.133056640625
scalar IntersectionExampleScenario.node[559].veinsmobility 	totalCO2Emission 	41.249821379551
scalar IntersectionExampleScenario.node[560].appl 	VehicleRemoved 	0
scalar IntersectionExampleScenario.node[560].appl 	ArrivedAtDest 	0
scalar IntersectionExampleScenario.node[560].appl 	IntersectionEnterTime 	1793.5
scalar IntersectionExampleScenario.node[560].appl 	IntersectionExitTime 	-1
scalar IntersectionExampleScenario.node[560].appl 	NumberOfCollisions 	0
scalar IntersectionExampleScenario.node[560].nic.phy80211p 	busyTime 	0
scalar IntersectionExampleScenario.node[560].nic.mac1609_4 	ReceivedUnicastPackets 	0
scalar IntersectionExampleScenario.node[560].nic.mac1609_4 	ReceivedBroadcasts 	0
scalar IntersectionExampleScenario.node[560].nic.mac1609_4 	SentPackets 	0
scalar IntersectionExampleScenario.node[560].nic.mac1609_4 	SNIRLostPackets 	0
scalar IntersectionExampleScenario.node[560].nic.mac1609_4 	RXTXLostPackets 	0
scalar IntersectionExampleScenario.node[560].nic.mac1609_4 	TotalLostPackets 	0
scalar IntersectionExampleScenario.node[560].nic.mac1609_4 	DroppedPacketsInMac 	0
scalar IntersectionExampleScenario.node[560].nic.mac1609_4 	TooLittleTime 	0
scalar IntersectionExampleScenario.node[560].nic.mac1609_4 	TimesIntoBackoff 	0
scalar IntersectionExampleScenario.node[560].nic.mac1609_4 	SlotsBackoff 	0
scalar IntersectionExampleScenario.node[560].nic.mac1609_4 	NumInternalContention 	0
scalar IntersectionExampleScenario.node[560].nic.mac1609_4 	totalBusyTime 	0
scalar IntersectionExampleScenario.node[560].veinsmobility 	startTime 	1793.5
scalar IntersectionExampleScenario.node[560].veinsmobility 	totalTime 	6.5
scalar IntersectionExampleScenario.node[560].veinsmobility 	stopTime 	1800
scalar IntersectionExampleScenario.node[560].veinsmobility 	minSpeed 	5.6500000953674
scalar IntersectionExampleScenario.node[560].veinsmobility 	maxSpeed 	15.64999961853
scalar IntersectionExampleScenario.node[560].veinsmobility 	totalDistance 	78.653869628906
scalar IntersectionExampleScenario.node[560].veinsmobility 	totalCO2Emission 	37.359088697129
