version 2
run nodebug-9-20200606-00:01:59-5072
attr configname nodebug
attr datetime 20200606-00:01:59
attr experiment nodebug
attr inifile omnetpp.ini
attr iterationvars ""
attr iterationvars2 $repetition=9
attr measurement ""
attr network "\"org.car2x.veins.modules.application.ExtTraCIScenarioManagerLaunchd.IntersectionExampleScenario\""
attr processid 5072
attr repetition 9
attr replication #9
attr resultdir results
attr runnumber 9
attr seedset 9
param **.coreDebug false
param **.debug false
param *.**.nic.mac1609_4.bitrate 18Mbps
param *.**.nic.mac1609_4.txPower 20mW
param *.**.nic.mac1609_4.useServiceChannel false
param *.**.nic.phy80211p.analogueModels "xmldoc(\"config.xml\")"
param *.**.nic.phy80211p.decider "xmldoc(\"config.xml\")"
param *.**.nic.phy80211p.sensitivity -89dBm
param *.**.nic.phy80211p.thermalNoise -110dBm
param *.**.nic.phy80211p.usePropagationDelay true
param *.**.nic.phy80211p.useThermalNoise true
param *.annotations.draw false
param *.connectionManager.alpha 2.0
param *.connectionManager.carrierFrequency "5.890e9 Hz"
param *.connectionManager.pMax 20mW
param *.connectionManager.sat -89dBm
param *.connectionManager.sendDirect true
param *.manager.autoShutdown true
param *.manager.host "\"localhost\""
param *.manager.launchConfig "xmldoc(\"paramics.launchd.xml\")"
param *.manager.margin 25
param *.manager.moduleDisplayString "\"\""
param *.manager.moduleName "\"node\""
param *.manager.moduleType "\"org.car2x.veins.nodes.Car\""
param *.manager.port 9999
param *.manager.updateInterval 250ms
param *.node[*0].veinsmobility.accidentCount 0
param *.node[*0].veinsmobility.accidentDuration 30s
param *.node[*0].veinsmobility.accidentStart 75s
param *.node[*].appl.LiderSelectZoneRadio 55.0
param *.node[*].appl.ShareDataZoneRadio 110.0
param *.node[*].appl.TiempoSemaforo 30.0
param *.node[*].appl.beaconInterval 1s
param *.node[*].appl.beaconPriority 3
param *.node[*].appl.dataOnSch false
param *.node[*].appl.dataPriority 2
param *.node[*].appl.debug false
param *.node[*].appl.headerLength "256 bit"
param *.node[*].appl.maxOffset 0.005s
param *.node[*].appl.sendBeacons false
param *.node[*].appl.sendData true
param *.node[*].applType "\"Dummy\""
param *.node[*].mobilityType "\"TraCIMobility\""
param *.node[*].mobilityType.debug true
param *.node[*].veinsmobility.x 0
param *.node[*].veinsmobility.y 0
param *.node[*].veinsmobility.z 1.895
param *.node[*].veinsmobilityType "\"org.car2x.veins.modules.mobility.traci.TraCIMobility\""
param *.node[*].veinsmobilityType.debug true
param *.playgroundSizeX 8500m
param *.playgroundSizeY 8500m
param *.playgroundSizeZ 50m
param *.world.use2D false
param *.world.useTorus false

scalar IntersectionExampleScenario.node[0].appl 	VehicleRemoved 	0
scalar IntersectionExampleScenario.node[0].appl 	ArrivedAtDest 	1
scalar IntersectionExampleScenario.node[0].appl 	IntersectionEnterTime 	2.25
scalar IntersectionExampleScenario.node[0].appl 	IntersectionExitTime 	26.016728691611
scalar IntersectionExampleScenario.node[0].appl 	NumberOfCollisions 	0
scalar IntersectionExampleScenario.node[0].nic.phy80211p 	busyTime 	0
scalar IntersectionExampleScenario.node[0].nic.mac1609_4 	ReceivedUnicastPackets 	0
scalar IntersectionExampleScenario.node[0].nic.mac1609_4 	ReceivedBroadcasts 	0
scalar IntersectionExampleScenario.node[0].nic.mac1609_4 	SentPackets 	0
scalar IntersectionExampleScenario.node[0].nic.mac1609_4 	SNIRLostPackets 	0
scalar IntersectionExampleScenario.node[0].nic.mac1609_4 	RXTXLostPackets 	0
scalar IntersectionExampleScenario.node[0].nic.mac1609_4 	TotalLostPackets 	0
scalar IntersectionExampleScenario.node[0].nic.mac1609_4 	DroppedPacketsInMac 	0
scalar IntersectionExampleScenario.node[0].nic.mac1609_4 	TooLittleTime 	0
scalar IntersectionExampleScenario.node[0].nic.mac1609_4 	TimesIntoBackoff 	0
scalar IntersectionExampleScenario.node[0].nic.mac1609_4 	SlotsBackoff 	0
scalar IntersectionExampleScenario.node[0].nic.mac1609_4 	NumInternalContention 	0
scalar IntersectionExampleScenario.node[0].nic.mac1609_4 	totalBusyTime 	0
scalar IntersectionExampleScenario.node[0].veinsmobility 	startTime 	2.25
scalar IntersectionExampleScenario.node[0].veinsmobility 	totalTime 	40.75
scalar IntersectionExampleScenario.node[0].veinsmobility 	stopTime 	43.25
scalar IntersectionExampleScenario.node[0].veinsmobility 	minSpeed 	5.6500000953674
scalar IntersectionExampleScenario.node[0].veinsmobility 	maxSpeed 	15.25
scalar IntersectionExampleScenario.node[0].veinsmobility 	totalDistance 	545.00396045028
scalar IntersectionExampleScenario.node[0].veinsmobility 	totalCO2Emission 	124.51165240541
scalar IntersectionExampleScenario.node[1].appl 	VehicleRemoved 	0
scalar IntersectionExampleScenario.node[1].appl 	ArrivedAtDest 	1
scalar IntersectionExampleScenario.node[1].appl 	IntersectionEnterTime 	3.75
scalar IntersectionExampleScenario.node[1].appl 	IntersectionExitTime 	27.531012646679
scalar IntersectionExampleScenario.node[1].appl 	NumberOfCollisions 	0
scalar IntersectionExampleScenario.node[1].nic.phy80211p 	busyTime 	0
scalar IntersectionExampleScenario.node[1].nic.mac1609_4 	ReceivedUnicastPackets 	0
scalar IntersectionExampleScenario.node[1].nic.mac1609_4 	ReceivedBroadcasts 	0
scalar IntersectionExampleScenario.node[1].nic.mac1609_4 	SentPackets 	0
scalar IntersectionExampleScenario.node[1].nic.mac1609_4 	SNIRLostPackets 	0
scalar IntersectionExampleScenario.node[1].nic.mac1609_4 	RXTXLostPackets 	0
scalar IntersectionExampleScenario.node[1].nic.mac1609_4 	TotalLostPackets 	0
scalar IntersectionExampleScenario.node[1].nic.mac1609_4 	DroppedPacketsInMac 	0
scalar IntersectionExampleScenario.node[1].nic.mac1609_4 	TooLittleTime 	0
scalar IntersectionExampleScenario.node[1].nic.mac1609_4 	TimesIntoBackoff 	0
scalar IntersectionExampleScenario.node[1].nic.mac1609_4 	SlotsBackoff 	0
scalar IntersectionExampleScenario.node[1].nic.mac1609_4 	NumInternalContention 	0
scalar IntersectionExampleScenario.node[1].nic.mac1609_4 	totalBusyTime 	0
scalar IntersectionExampleScenario.node[1].veinsmobility 	startTime 	3.75
scalar IntersectionExampleScenario.node[1].veinsmobility 	totalTime 	40.75
scalar IntersectionExampleScenario.node[1].veinsmobility 	stopTime 	44.75
scalar IntersectionExampleScenario.node[1].veinsmobility 	minSpeed 	5.6500000953674
scalar IntersectionExampleScenario.node[1].veinsmobility 	maxSpeed 	15.64999961853
scalar IntersectionExampleScenario.node[1].veinsmobility 	totalDistance 	551.77269259116
scalar IntersectionExampleScenario.node[1].veinsmobility 	totalCO2Emission 	126.20547776307
scalar IntersectionExampleScenario.node[4].appl 	VehicleRemoved 	0
scalar IntersectionExampleScenario.node[4].appl 	ArrivedAtDest 	1
scalar IntersectionExampleScenario.node[4].appl 	IntersectionEnterTime 	22.5
scalar IntersectionExampleScenario.node[4].appl 	IntersectionExitTime 	46.337803427159
scalar IntersectionExampleScenario.node[4].appl 	NumberOfCollisions 	0
scalar IntersectionExampleScenario.node[4].nic.phy80211p 	busyTime 	0
scalar IntersectionExampleScenario.node[4].nic.mac1609_4 	ReceivedUnicastPackets 	0
scalar IntersectionExampleScenario.node[4].nic.mac1609_4 	ReceivedBroadcasts 	0
scalar IntersectionExampleScenario.node[4].nic.mac1609_4 	SentPackets 	0
scalar IntersectionExampleScenario.node[4].nic.mac1609_4 	SNIRLostPackets 	0
scalar IntersectionExampleScenario.node[4].nic.mac1609_4 	RXTXLostPackets 	0
scalar IntersectionExampleScenario.node[4].nic.mac1609_4 	TotalLostPackets 	0
scalar IntersectionExampleScenario.node[4].nic.mac1609_4 	DroppedPacketsInMac 	0
scalar IntersectionExampleScenario.node[4].nic.mac1609_4 	TooLittleTime 	0
scalar IntersectionExampleScenario.node[4].nic.mac1609_4 	TimesIntoBackoff 	0
scalar IntersectionExampleScenario.node[4].nic.mac1609_4 	SlotsBackoff 	0
scalar IntersectionExampleScenario.node[4].nic.mac1609_4 	NumInternalContention 	0
scalar IntersectionExampleScenario.node[4].nic.mac1609_4 	totalBusyTime 	0
scalar IntersectionExampleScenario.node[4].veinsmobility 	startTime 	22.5
scalar IntersectionExampleScenario.node[4].veinsmobility 	totalTime 	40.5
scalar IntersectionExampleScenario.node[4].veinsmobility 	stopTime 	63.25
scalar IntersectionExampleScenario.node[4].veinsmobility 	minSpeed 	5.6500000953674
scalar IntersectionExampleScenario.node[4].veinsmobility 	maxSpeed 	14.875
scalar IntersectionExampleScenario.node[4].veinsmobility 	totalDistance 	551.49179840088
scalar IntersectionExampleScenario.node[4].veinsmobility 	totalCO2Emission 	112.35568227965
scalar IntersectionExampleScenario.node[3].appl 	VehicleRemoved 	0
scalar IntersectionExampleScenario.node[3].appl 	ArrivedAtDest 	1
scalar IntersectionExampleScenario.node[3].appl 	IntersectionEnterTime 	14.25
scalar IntersectionExampleScenario.node[3].appl 	IntersectionExitTime 	48.571594977693
scalar IntersectionExampleScenario.node[3].appl 	NumberOfCollisions 	0
scalar IntersectionExampleScenario.node[3].nic.phy80211p 	busyTime 	0
scalar IntersectionExampleScenario.node[3].nic.mac1609_4 	ReceivedUnicastPackets 	0
scalar IntersectionExampleScenario.node[3].nic.mac1609_4 	ReceivedBroadcasts 	0
scalar IntersectionExampleScenario.node[3].nic.mac1609_4 	SentPackets 	0
scalar IntersectionExampleScenario.node[3].nic.mac1609_4 	SNIRLostPackets 	0
scalar IntersectionExampleScenario.node[3].nic.mac1609_4 	RXTXLostPackets 	0
scalar IntersectionExampleScenario.node[3].nic.mac1609_4 	TotalLostPackets 	0
scalar IntersectionExampleScenario.node[3].nic.mac1609_4 	DroppedPacketsInMac 	0
scalar IntersectionExampleScenario.node[3].nic.mac1609_4 	TooLittleTime 	0
scalar IntersectionExampleScenario.node[3].nic.mac1609_4 	TimesIntoBackoff 	0
scalar IntersectionExampleScenario.node[3].nic.mac1609_4 	SlotsBackoff 	0
scalar IntersectionExampleScenario.node[3].nic.mac1609_4 	NumInternalContention 	0
scalar IntersectionExampleScenario.node[3].nic.mac1609_4 	totalBusyTime 	0
scalar IntersectionExampleScenario.node[3].veinsmobility 	startTime 	14.25
scalar IntersectionExampleScenario.node[3].veinsmobility 	totalTime 	51.25
scalar IntersectionExampleScenario.node[3].veinsmobility 	stopTime 	65.75
scalar IntersectionExampleScenario.node[3].veinsmobility 	minSpeed 	0
scalar IntersectionExampleScenario.node[3].veinsmobility 	maxSpeed 	15.25
scalar IntersectionExampleScenario.node[3].veinsmobility 	totalDistance 	543.924857153
scalar IntersectionExampleScenario.node[3].veinsmobility 	totalCO2Emission 	140.27510192622
scalar IntersectionExampleScenario.node[5].appl 	VehicleRemoved 	0
scalar IntersectionExampleScenario.node[5].appl 	ArrivedAtDest 	1
scalar IntersectionExampleScenario.node[5].appl 	IntersectionEnterTime 	25
scalar IntersectionExampleScenario.node[5].appl 	IntersectionExitTime 	51.80820855897
scalar IntersectionExampleScenario.node[5].appl 	NumberOfCollisions 	0
scalar IntersectionExampleScenario.node[5].nic.phy80211p 	busyTime 	0
scalar IntersectionExampleScenario.node[5].nic.mac1609_4 	ReceivedUnicastPackets 	0
scalar IntersectionExampleScenario.node[5].nic.mac1609_4 	ReceivedBroadcasts 	0
scalar IntersectionExampleScenario.node[5].nic.mac1609_4 	SentPackets 	0
scalar IntersectionExampleScenario.node[5].nic.mac1609_4 	SNIRLostPackets 	0
scalar IntersectionExampleScenario.node[5].nic.mac1609_4 	RXTXLostPackets 	0
scalar IntersectionExampleScenario.node[5].nic.mac1609_4 	TotalLostPackets 	0
scalar IntersectionExampleScenario.node[5].nic.mac1609_4 	DroppedPacketsInMac 	0
scalar IntersectionExampleScenario.node[5].nic.mac1609_4 	TooLittleTime 	0
scalar IntersectionExampleScenario.node[5].nic.mac1609_4 	TimesIntoBackoff 	0
scalar IntersectionExampleScenario.node[5].nic.mac1609_4 	SlotsBackoff 	0
scalar IntersectionExampleScenario.node[5].nic.mac1609_4 	NumInternalContention 	0
scalar IntersectionExampleScenario.node[5].nic.mac1609_4 	totalBusyTime 	0
scalar IntersectionExampleScenario.node[5].veinsmobility 	startTime 	25
scalar IntersectionExampleScenario.node[5].veinsmobility 	totalTime 	43.25
scalar IntersectionExampleScenario.node[5].veinsmobility 	stopTime 	68.5
scalar IntersectionExampleScenario.node[5].veinsmobility 	minSpeed 	5.6384162902832
scalar IntersectionExampleScenario.node[5].veinsmobility 	maxSpeed 	15.667907714844
scalar IntersectionExampleScenario.node[5].veinsmobility 	totalDistance 	546.47676111462
scalar IntersectionExampleScenario.node[5].veinsmobility 	totalCO2Emission 	137.77834695998
scalar IntersectionExampleScenario.node[2].appl 	VehicleRemoved 	0
scalar IntersectionExampleScenario.node[2].appl 	ArrivedAtDest 	1
scalar IntersectionExampleScenario.node[2].appl 	IntersectionEnterTime 	13.25
scalar IntersectionExampleScenario.node[2].appl 	IntersectionExitTime 	62.609819885343
scalar IntersectionExampleScenario.node[2].appl 	NumberOfCollisions 	0
scalar IntersectionExampleScenario.node[2].nic.phy80211p 	busyTime 	0
scalar IntersectionExampleScenario.node[2].nic.mac1609_4 	ReceivedUnicastPackets 	0
scalar IntersectionExampleScenario.node[2].nic.mac1609_4 	ReceivedBroadcasts 	0
scalar IntersectionExampleScenario.node[2].nic.mac1609_4 	SentPackets 	0
scalar IntersectionExampleScenario.node[2].nic.mac1609_4 	SNIRLostPackets 	0
scalar IntersectionExampleScenario.node[2].nic.mac1609_4 	RXTXLostPackets 	0
scalar IntersectionExampleScenario.node[2].nic.mac1609_4 	TotalLostPackets 	0
scalar IntersectionExampleScenario.node[2].nic.mac1609_4 	DroppedPacketsInMac 	0
scalar IntersectionExampleScenario.node[2].nic.mac1609_4 	TooLittleTime 	0
scalar IntersectionExampleScenario.node[2].nic.mac1609_4 	TimesIntoBackoff 	0
scalar IntersectionExampleScenario.node[2].nic.mac1609_4 	SlotsBackoff 	0
scalar IntersectionExampleScenario.node[2].nic.mac1609_4 	NumInternalContention 	0
scalar IntersectionExampleScenario.node[2].nic.mac1609_4 	totalBusyTime 	0
scalar IntersectionExampleScenario.node[2].veinsmobility 	startTime 	13.25
scalar IntersectionExampleScenario.node[2].veinsmobility 	totalTime 	65.5
scalar IntersectionExampleScenario.node[2].veinsmobility 	stopTime 	79
scalar IntersectionExampleScenario.node[2].veinsmobility 	minSpeed 	0
scalar IntersectionExampleScenario.node[2].veinsmobility 	maxSpeed 	16.309579849243
scalar IntersectionExampleScenario.node[2].veinsmobility 	totalDistance 	544.4219274655
scalar IntersectionExampleScenario.node[2].veinsmobility 	totalCO2Emission 	162.63600988318
scalar IntersectionExampleScenario.node[9].appl 	VehicleRemoved 	0
scalar IntersectionExampleScenario.node[9].appl 	ArrivedAtDest 	1
scalar IntersectionExampleScenario.node[9].appl 	IntersectionEnterTime 	38
scalar IntersectionExampleScenario.node[9].appl 	IntersectionExitTime 	61.807941839797
scalar IntersectionExampleScenario.node[9].appl 	NumberOfCollisions 	0
scalar IntersectionExampleScenario.node[9].nic.phy80211p 	busyTime 	0
scalar IntersectionExampleScenario.node[9].nic.mac1609_4 	ReceivedUnicastPackets 	0
scalar IntersectionExampleScenario.node[9].nic.mac1609_4 	ReceivedBroadcasts 	0
scalar IntersectionExampleScenario.node[9].nic.mac1609_4 	SentPackets 	0
scalar IntersectionExampleScenario.node[9].nic.mac1609_4 	SNIRLostPackets 	0
scalar IntersectionExampleScenario.node[9].nic.mac1609_4 	RXTXLostPackets 	0
scalar IntersectionExampleScenario.node[9].nic.mac1609_4 	TotalLostPackets 	0
scalar IntersectionExampleScenario.node[9].nic.mac1609_4 	DroppedPacketsInMac 	0
scalar IntersectionExampleScenario.node[9].nic.mac1609_4 	TooLittleTime 	0
scalar IntersectionExampleScenario.node[9].nic.mac1609_4 	TimesIntoBackoff 	0
scalar IntersectionExampleScenario.node[9].nic.mac1609_4 	SlotsBackoff 	0
scalar IntersectionExampleScenario.node[9].nic.mac1609_4 	NumInternalContention 	0
scalar IntersectionExampleScenario.node[9].nic.mac1609_4 	totalBusyTime 	0
scalar IntersectionExampleScenario.node[9].veinsmobility 	startTime 	38
scalar IntersectionExampleScenario.node[9].veinsmobility 	totalTime 	40.75
scalar IntersectionExampleScenario.node[9].veinsmobility 	stopTime 	79
scalar IntersectionExampleScenario.node[9].veinsmobility 	minSpeed 	5.6500000953674
scalar IntersectionExampleScenario.node[9].veinsmobility 	maxSpeed 	15.02499961853
scalar IntersectionExampleScenario.node[9].veinsmobility 	totalDistance 	551.52731353281
scalar IntersectionExampleScenario.node[9].veinsmobility 	totalCO2Emission 	119.13159063582
scalar IntersectionExampleScenario.node[8].appl 	VehicleRemoved 	0
scalar IntersectionExampleScenario.node[8].appl 	ArrivedAtDest 	1
scalar IntersectionExampleScenario.node[8].appl 	IntersectionEnterTime 	37
scalar IntersectionExampleScenario.node[8].appl 	IntersectionExitTime 	63.859175104648
scalar IntersectionExampleScenario.node[8].appl 	NumberOfCollisions 	0
scalar IntersectionExampleScenario.node[8].nic.phy80211p 	busyTime 	0
scalar IntersectionExampleScenario.node[8].nic.mac1609_4 	ReceivedUnicastPackets 	0
scalar IntersectionExampleScenario.node[8].nic.mac1609_4 	ReceivedBroadcasts 	0
scalar IntersectionExampleScenario.node[8].nic.mac1609_4 	SentPackets 	0
scalar IntersectionExampleScenario.node[8].nic.mac1609_4 	SNIRLostPackets 	0
scalar IntersectionExampleScenario.node[8].nic.mac1609_4 	RXTXLostPackets 	0
scalar IntersectionExampleScenario.node[8].nic.mac1609_4 	TotalLostPackets 	0
scalar IntersectionExampleScenario.node[8].nic.mac1609_4 	DroppedPacketsInMac 	0
scalar IntersectionExampleScenario.node[8].nic.mac1609_4 	TooLittleTime 	0
scalar IntersectionExampleScenario.node[8].nic.mac1609_4 	TimesIntoBackoff 	0
scalar IntersectionExampleScenario.node[8].nic.mac1609_4 	SlotsBackoff 	0
scalar IntersectionExampleScenario.node[8].nic.mac1609_4 	NumInternalContention 	0
scalar IntersectionExampleScenario.node[8].nic.mac1609_4 	totalBusyTime 	0
scalar IntersectionExampleScenario.node[8].veinsmobility 	startTime 	37
scalar IntersectionExampleScenario.node[8].veinsmobility 	totalTime 	43.25
scalar IntersectionExampleScenario.node[8].veinsmobility 	stopTime 	80.5
scalar IntersectionExampleScenario.node[8].veinsmobility 	minSpeed 	3.4728631973267
scalar IntersectionExampleScenario.node[8].veinsmobility 	maxSpeed 	15.875
scalar IntersectionExampleScenario.node[8].veinsmobility 	totalDistance 	561.57555216028
scalar IntersectionExampleScenario.node[8].veinsmobility 	totalCO2Emission 	135.74205251047
scalar IntersectionExampleScenario.node[7].appl 	VehicleRemoved 	0
scalar IntersectionExampleScenario.node[7].appl 	ArrivedAtDest 	1
scalar IntersectionExampleScenario.node[7].appl 	IntersectionEnterTime 	35
scalar IntersectionExampleScenario.node[7].appl 	IntersectionExitTime 	63.607603990182
scalar IntersectionExampleScenario.node[7].appl 	NumberOfCollisions 	0
scalar IntersectionExampleScenario.node[7].nic.phy80211p 	busyTime 	0
scalar IntersectionExampleScenario.node[7].nic.mac1609_4 	ReceivedUnicastPackets 	0
scalar IntersectionExampleScenario.node[7].nic.mac1609_4 	ReceivedBroadcasts 	0
scalar IntersectionExampleScenario.node[7].nic.mac1609_4 	SentPackets 	0
scalar IntersectionExampleScenario.node[7].nic.mac1609_4 	SNIRLostPackets 	0
scalar IntersectionExampleScenario.node[7].nic.mac1609_4 	RXTXLostPackets 	0
scalar IntersectionExampleScenario.node[7].nic.mac1609_4 	TotalLostPackets 	0
scalar IntersectionExampleScenario.node[7].nic.mac1609_4 	DroppedPacketsInMac 	0
scalar IntersectionExampleScenario.node[7].nic.mac1609_4 	TooLittleTime 	0
scalar IntersectionExampleScenario.node[7].nic.mac1609_4 	TimesIntoBackoff 	0
scalar IntersectionExampleScenario.node[7].nic.mac1609_4 	SlotsBackoff 	0
scalar IntersectionExampleScenario.node[7].nic.mac1609_4 	NumInternalContention 	0
scalar IntersectionExampleScenario.node[7].nic.mac1609_4 	totalBusyTime 	0
scalar IntersectionExampleScenario.node[7].veinsmobility 	startTime 	35
scalar IntersectionExampleScenario.node[7].veinsmobility 	totalTime 	45.5
scalar IntersectionExampleScenario.node[7].veinsmobility 	stopTime 	80.75
scalar IntersectionExampleScenario.node[7].veinsmobility 	minSpeed 	0
scalar IntersectionExampleScenario.node[7].veinsmobility 	maxSpeed 	15.02499961853
scalar IntersectionExampleScenario.node[7].veinsmobility 	totalDistance 	552.52158355713
scalar IntersectionExampleScenario.node[7].veinsmobility 	totalCO2Emission 	132.77489377014
scalar IntersectionExampleScenario.node[6].appl 	VehicleRemoved 	0
scalar IntersectionExampleScenario.node[6].appl 	ArrivedAtDest 	1
scalar IntersectionExampleScenario.node[6].appl 	IntersectionEnterTime 	27.25
scalar IntersectionExampleScenario.node[6].appl 	IntersectionExitTime 	65.021204532881
scalar IntersectionExampleScenario.node[6].appl 	NumberOfCollisions 	0
scalar IntersectionExampleScenario.node[6].nic.phy80211p 	busyTime 	0
scalar IntersectionExampleScenario.node[6].nic.mac1609_4 	ReceivedUnicastPackets 	0
scalar IntersectionExampleScenario.node[6].nic.mac1609_4 	ReceivedBroadcasts 	0
scalar IntersectionExampleScenario.node[6].nic.mac1609_4 	SentPackets 	0
scalar IntersectionExampleScenario.node[6].nic.mac1609_4 	SNIRLostPackets 	0
scalar IntersectionExampleScenario.node[6].nic.mac1609_4 	RXTXLostPackets 	0
scalar IntersectionExampleScenario.node[6].nic.mac1609_4 	TotalLostPackets 	0
scalar IntersectionExampleScenario.node[6].nic.mac1609_4 	DroppedPacketsInMac 	0
scalar IntersectionExampleScenario.node[6].nic.mac1609_4 	TooLittleTime 	0
scalar IntersectionExampleScenario.node[6].nic.mac1609_4 	TimesIntoBackoff 	0
scalar IntersectionExampleScenario.node[6].nic.mac1609_4 	SlotsBackoff 	0
scalar IntersectionExampleScenario.node[6].nic.mac1609_4 	NumInternalContention 	0
scalar IntersectionExampleScenario.node[6].nic.mac1609_4 	totalBusyTime 	0
scalar IntersectionExampleScenario.node[6].veinsmobility 	startTime 	27.25
scalar IntersectionExampleScenario.node[6].veinsmobility 	totalTime 	54.5
scalar IntersectionExampleScenario.node[6].veinsmobility 	stopTime 	82
scalar IntersectionExampleScenario.node[6].veinsmobility 	minSpeed 	0
scalar IntersectionExampleScenario.node[6].veinsmobility 	maxSpeed 	15.64999961853
scalar IntersectionExampleScenario.node[6].veinsmobility 	totalDistance 	549.55444158687
scalar IntersectionExampleScenario.node[6].veinsmobility 	totalCO2Emission 	143.91350922084
scalar IntersectionExampleScenario.node[10].appl 	VehicleRemoved 	0
scalar IntersectionExampleScenario.node[10].appl 	ArrivedAtDest 	1
scalar IntersectionExampleScenario.node[10].appl 	IntersectionEnterTime 	45.25
scalar IntersectionExampleScenario.node[10].appl 	IntersectionExitTime 	68.76751977019
scalar IntersectionExampleScenario.node[10].appl 	NumberOfCollisions 	0
scalar IntersectionExampleScenario.node[10].nic.phy80211p 	busyTime 	0
scalar IntersectionExampleScenario.node[10].nic.mac1609_4 	ReceivedUnicastPackets 	0
scalar IntersectionExampleScenario.node[10].nic.mac1609_4 	ReceivedBroadcasts 	0
scalar IntersectionExampleScenario.node[10].nic.mac1609_4 	SentPackets 	0
scalar IntersectionExampleScenario.node[10].nic.mac1609_4 	SNIRLostPackets 	0
scalar IntersectionExampleScenario.node[10].nic.mac1609_4 	RXTXLostPackets 	0
scalar IntersectionExampleScenario.node[10].nic.mac1609_4 	TotalLostPackets 	0
scalar IntersectionExampleScenario.node[10].nic.mac1609_4 	DroppedPacketsInMac 	0
scalar IntersectionExampleScenario.node[10].nic.mac1609_4 	TooLittleTime 	0
scalar IntersectionExampleScenario.node[10].nic.mac1609_4 	TimesIntoBackoff 	0
scalar IntersectionExampleScenario.node[10].nic.mac1609_4 	SlotsBackoff 	0
scalar IntersectionExampleScenario.node[10].nic.mac1609_4 	NumInternalContention 	0
scalar IntersectionExampleScenario.node[10].nic.mac1609_4 	totalBusyTime 	0
scalar IntersectionExampleScenario.node[10].veinsmobility 	startTime 	45.25
scalar IntersectionExampleScenario.node[10].veinsmobility 	totalTime 	39.5
scalar IntersectionExampleScenario.node[10].veinsmobility 	stopTime 	85
scalar IntersectionExampleScenario.node[10].veinsmobility 	minSpeed 	5.6500000953674
scalar IntersectionExampleScenario.node[10].veinsmobility 	maxSpeed 	16.086132049561
scalar IntersectionExampleScenario.node[10].veinsmobility 	totalDistance 	549.60832223091
scalar IntersectionExampleScenario.node[10].veinsmobility 	totalCO2Emission 	130.73306049973
scalar IntersectionExampleScenario.node[11].appl 	VehicleRemoved 	0
scalar IntersectionExampleScenario.node[11].appl 	ArrivedAtDest 	1
scalar IntersectionExampleScenario.node[11].appl 	IntersectionEnterTime 	49.75
scalar IntersectionExampleScenario.node[11].appl 	IntersectionExitTime 	72.799097640644
scalar IntersectionExampleScenario.node[11].appl 	NumberOfCollisions 	0
scalar IntersectionExampleScenario.node[11].nic.phy80211p 	busyTime 	0
scalar IntersectionExampleScenario.node[11].nic.mac1609_4 	ReceivedUnicastPackets 	0
scalar IntersectionExampleScenario.node[11].nic.mac1609_4 	ReceivedBroadcasts 	0
scalar IntersectionExampleScenario.node[11].nic.mac1609_4 	SentPackets 	0
scalar IntersectionExampleScenario.node[11].nic.mac1609_4 	SNIRLostPackets 	0
scalar IntersectionExampleScenario.node[11].nic.mac1609_4 	RXTXLostPackets 	0
scalar IntersectionExampleScenario.node[11].nic.mac1609_4 	TotalLostPackets 	0
scalar IntersectionExampleScenario.node[11].nic.mac1609_4 	DroppedPacketsInMac 	0
scalar IntersectionExampleScenario.node[11].nic.mac1609_4 	TooLittleTime 	0
scalar IntersectionExampleScenario.node[11].nic.mac1609_4 	TimesIntoBackoff 	0
scalar IntersectionExampleScenario.node[11].nic.mac1609_4 	SlotsBackoff 	0
scalar IntersectionExampleScenario.node[11].nic.mac1609_4 	NumInternalContention 	0
scalar IntersectionExampleScenario.node[11].nic.mac1609_4 	totalBusyTime 	0
scalar IntersectionExampleScenario.node[11].veinsmobility 	startTime 	49.75
scalar IntersectionExampleScenario.node[11].veinsmobility 	totalTime 	39.25
scalar IntersectionExampleScenario.node[11].veinsmobility 	stopTime 	89.25
scalar IntersectionExampleScenario.node[11].veinsmobility 	minSpeed 	5.6500000953674
scalar IntersectionExampleScenario.node[11].veinsmobility 	maxSpeed 	15.5
scalar IntersectionExampleScenario.node[11].veinsmobility 	totalDistance 	553.05179595947
scalar IntersectionExampleScenario.node[11].veinsmobility 	totalCO2Emission 	116.18734368803
scalar IntersectionExampleScenario.node[14].appl 	VehicleRemoved 	0
scalar IntersectionExampleScenario.node[14].appl 	ArrivedAtDest 	1
scalar IntersectionExampleScenario.node[14].appl 	IntersectionEnterTime 	55
scalar IntersectionExampleScenario.node[14].appl 	IntersectionExitTime 	77.50876069488
scalar IntersectionExampleScenario.node[14].appl 	NumberOfCollisions 	0
scalar IntersectionExampleScenario.node[14].nic.phy80211p 	busyTime 	0
scalar IntersectionExampleScenario.node[14].nic.mac1609_4 	ReceivedUnicastPackets 	0
scalar IntersectionExampleScenario.node[14].nic.mac1609_4 	ReceivedBroadcasts 	0
scalar IntersectionExampleScenario.node[14].nic.mac1609_4 	SentPackets 	0
scalar IntersectionExampleScenario.node[14].nic.mac1609_4 	SNIRLostPackets 	0
scalar IntersectionExampleScenario.node[14].nic.mac1609_4 	RXTXLostPackets 	0
scalar IntersectionExampleScenario.node[14].nic.mac1609_4 	TotalLostPackets 	0
scalar IntersectionExampleScenario.node[14].nic.mac1609_4 	DroppedPacketsInMac 	0
scalar IntersectionExampleScenario.node[14].nic.mac1609_4 	TooLittleTime 	0
scalar IntersectionExampleScenario.node[14].nic.mac1609_4 	TimesIntoBackoff 	0
scalar IntersectionExampleScenario.node[14].nic.mac1609_4 	SlotsBackoff 	0
scalar IntersectionExampleScenario.node[14].nic.mac1609_4 	NumInternalContention 	0
scalar IntersectionExampleScenario.node[14].nic.mac1609_4 	totalBusyTime 	0
scalar IntersectionExampleScenario.node[14].veinsmobility 	startTime 	55
scalar IntersectionExampleScenario.node[14].veinsmobility 	totalTime 	38.25
scalar IntersectionExampleScenario.node[14].veinsmobility 	stopTime 	93.5
scalar IntersectionExampleScenario.node[14].veinsmobility 	minSpeed 	5.6500000953674
scalar IntersectionExampleScenario.node[14].veinsmobility 	maxSpeed 	16.89999961853
scalar IntersectionExampleScenario.node[14].veinsmobility 	totalDistance 	543.93053475986
scalar IntersectionExampleScenario.node[14].veinsmobility 	totalCO2Emission 	134.05088984846
scalar IntersectionExampleScenario.node[12].appl 	VehicleRemoved 	0
scalar IntersectionExampleScenario.node[12].appl 	ArrivedAtDest 	1
scalar IntersectionExampleScenario.node[12].appl 	IntersectionEnterTime 	52
scalar IntersectionExampleScenario.node[12].appl 	IntersectionExitTime 	79.255356459005
scalar IntersectionExampleScenario.node[12].appl 	NumberOfCollisions 	0
scalar IntersectionExampleScenario.node[12].nic.phy80211p 	busyTime 	0
scalar IntersectionExampleScenario.node[12].nic.mac1609_4 	ReceivedUnicastPackets 	0
scalar IntersectionExampleScenario.node[12].nic.mac1609_4 	ReceivedBroadcasts 	0
scalar IntersectionExampleScenario.node[12].nic.mac1609_4 	SentPackets 	0
scalar IntersectionExampleScenario.node[12].nic.mac1609_4 	SNIRLostPackets 	0
scalar IntersectionExampleScenario.node[12].nic.mac1609_4 	RXTXLostPackets 	0
scalar IntersectionExampleScenario.node[12].nic.mac1609_4 	TotalLostPackets 	0
scalar IntersectionExampleScenario.node[12].nic.mac1609_4 	DroppedPacketsInMac 	0
scalar IntersectionExampleScenario.node[12].nic.mac1609_4 	TooLittleTime 	0
scalar IntersectionExampleScenario.node[12].nic.mac1609_4 	TimesIntoBackoff 	0
scalar IntersectionExampleScenario.node[12].nic.mac1609_4 	SlotsBackoff 	0
scalar IntersectionExampleScenario.node[12].nic.mac1609_4 	NumInternalContention 	0
scalar IntersectionExampleScenario.node[12].nic.mac1609_4 	totalBusyTime 	0
scalar IntersectionExampleScenario.node[12].veinsmobility 	startTime 	52
scalar IntersectionExampleScenario.node[12].veinsmobility 	totalTime 	43.25
scalar IntersectionExampleScenario.node[12].veinsmobility 	stopTime 	95.5
scalar IntersectionExampleScenario.node[12].veinsmobility 	minSpeed 	0
scalar IntersectionExampleScenario.node[12].veinsmobility 	maxSpeed 	15.64999961853
scalar IntersectionExampleScenario.node[12].veinsmobility 	totalDistance 	550.51123155704
scalar IntersectionExampleScenario.node[12].veinsmobility 	totalCO2Emission 	136.46721213873
scalar IntersectionExampleScenario.node[13].appl 	VehicleRemoved 	0
scalar IntersectionExampleScenario.node[13].appl 	ArrivedAtDest 	1
scalar IntersectionExampleScenario.node[13].appl 	IntersectionEnterTime 	53.75
scalar IntersectionExampleScenario.node[13].appl 	IntersectionExitTime 	93.584214289964
scalar IntersectionExampleScenario.node[13].appl 	NumberOfCollisions 	0
scalar IntersectionExampleScenario.node[13].nic.phy80211p 	busyTime 	0
scalar IntersectionExampleScenario.node[13].nic.mac1609_4 	ReceivedUnicastPackets 	0
scalar IntersectionExampleScenario.node[13].nic.mac1609_4 	ReceivedBroadcasts 	0
scalar IntersectionExampleScenario.node[13].nic.mac1609_4 	SentPackets 	0
scalar IntersectionExampleScenario.node[13].nic.mac1609_4 	SNIRLostPackets 	0
scalar IntersectionExampleScenario.node[13].nic.mac1609_4 	RXTXLostPackets 	0
scalar IntersectionExampleScenario.node[13].nic.mac1609_4 	TotalLostPackets 	0
scalar IntersectionExampleScenario.node[13].nic.mac1609_4 	DroppedPacketsInMac 	0
scalar IntersectionExampleScenario.node[13].nic.mac1609_4 	TooLittleTime 	0
scalar IntersectionExampleScenario.node[13].nic.mac1609_4 	TimesIntoBackoff 	0
scalar IntersectionExampleScenario.node[13].nic.mac1609_4 	SlotsBackoff 	0
scalar IntersectionExampleScenario.node[13].nic.mac1609_4 	NumInternalContention 	0
scalar IntersectionExampleScenario.node[13].nic.mac1609_4 	totalBusyTime 	0
scalar IntersectionExampleScenario.node[13].veinsmobility 	startTime 	53.75
scalar IntersectionExampleScenario.node[13].veinsmobility 	totalTime 	57.25
scalar IntersectionExampleScenario.node[13].veinsmobility 	stopTime 	111.25
scalar IntersectionExampleScenario.node[13].veinsmobility 	minSpeed 	0
scalar IntersectionExampleScenario.node[13].veinsmobility 	maxSpeed 	15.02499961853
scalar IntersectionExampleScenario.node[13].veinsmobility 	totalDistance 	546.21668149382
scalar IntersectionExampleScenario.node[13].veinsmobility 	totalCO2Emission 	143.88480538394
scalar IntersectionExampleScenario.node[17].appl 	VehicleRemoved 	0
scalar IntersectionExampleScenario.node[17].appl 	ArrivedAtDest 	1
scalar IntersectionExampleScenario.node[17].appl 	IntersectionEnterTime 	75.5
scalar IntersectionExampleScenario.node[17].appl 	IntersectionExitTime 	107.59119563416
scalar IntersectionExampleScenario.node[17].appl 	NumberOfCollisions 	0
scalar IntersectionExampleScenario.node[17].nic.phy80211p 	busyTime 	0
scalar IntersectionExampleScenario.node[17].nic.mac1609_4 	ReceivedUnicastPackets 	0
scalar IntersectionExampleScenario.node[17].nic.mac1609_4 	ReceivedBroadcasts 	0
scalar IntersectionExampleScenario.node[17].nic.mac1609_4 	SentPackets 	0
scalar IntersectionExampleScenario.node[17].nic.mac1609_4 	SNIRLostPackets 	0
scalar IntersectionExampleScenario.node[17].nic.mac1609_4 	RXTXLostPackets 	0
scalar IntersectionExampleScenario.node[17].nic.mac1609_4 	TotalLostPackets 	0
scalar IntersectionExampleScenario.node[17].nic.mac1609_4 	DroppedPacketsInMac 	0
scalar IntersectionExampleScenario.node[17].nic.mac1609_4 	TooLittleTime 	0
scalar IntersectionExampleScenario.node[17].nic.mac1609_4 	TimesIntoBackoff 	0
scalar IntersectionExampleScenario.node[17].nic.mac1609_4 	SlotsBackoff 	0
scalar IntersectionExampleScenario.node[17].nic.mac1609_4 	NumInternalContention 	0
scalar IntersectionExampleScenario.node[17].nic.mac1609_4 	totalBusyTime 	0
scalar IntersectionExampleScenario.node[17].veinsmobility 	startTime 	75.5
scalar IntersectionExampleScenario.node[17].veinsmobility 	totalTime 	49
scalar IntersectionExampleScenario.node[17].veinsmobility 	stopTime 	124.75
scalar IntersectionExampleScenario.node[17].veinsmobility 	minSpeed 	0
scalar IntersectionExampleScenario.node[17].veinsmobility 	maxSpeed 	15.25
scalar IntersectionExampleScenario.node[17].veinsmobility 	totalDistance 	543.3859396115
scalar IntersectionExampleScenario.node[17].veinsmobility 	totalCO2Emission 	137.98926551698
scalar IntersectionExampleScenario.node[15].appl 	VehicleRemoved 	0
scalar IntersectionExampleScenario.node[15].appl 	ArrivedAtDest 	1
scalar IntersectionExampleScenario.node[15].appl 	IntersectionEnterTime 	68
scalar IntersectionExampleScenario.node[15].appl 	IntersectionExitTime 	107.50434776975
scalar IntersectionExampleScenario.node[15].appl 	NumberOfCollisions 	0
scalar IntersectionExampleScenario.node[15].nic.phy80211p 	busyTime 	0
scalar IntersectionExampleScenario.node[15].nic.mac1609_4 	ReceivedUnicastPackets 	0
scalar IntersectionExampleScenario.node[15].nic.mac1609_4 	ReceivedBroadcasts 	0
scalar IntersectionExampleScenario.node[15].nic.mac1609_4 	SentPackets 	0
scalar IntersectionExampleScenario.node[15].nic.mac1609_4 	SNIRLostPackets 	0
scalar IntersectionExampleScenario.node[15].nic.mac1609_4 	RXTXLostPackets 	0
scalar IntersectionExampleScenario.node[15].nic.mac1609_4 	TotalLostPackets 	0
scalar IntersectionExampleScenario.node[15].nic.mac1609_4 	DroppedPacketsInMac 	0
scalar IntersectionExampleScenario.node[15].nic.mac1609_4 	TooLittleTime 	0
scalar IntersectionExampleScenario.node[15].nic.mac1609_4 	TimesIntoBackoff 	0
scalar IntersectionExampleScenario.node[15].nic.mac1609_4 	SlotsBackoff 	0
scalar IntersectionExampleScenario.node[15].nic.mac1609_4 	NumInternalContention 	0
scalar IntersectionExampleScenario.node[15].nic.mac1609_4 	totalBusyTime 	0
scalar IntersectionExampleScenario.node[15].veinsmobility 	startTime 	68
scalar IntersectionExampleScenario.node[15].veinsmobility 	totalTime 	56.75
scalar IntersectionExampleScenario.node[15].veinsmobility 	stopTime 	125
scalar IntersectionExampleScenario.node[15].veinsmobility 	minSpeed 	0
scalar IntersectionExampleScenario.node[15].veinsmobility 	maxSpeed 	15.02499961853
scalar IntersectionExampleScenario.node[15].veinsmobility 	totalDistance 	543.13829709441
scalar IntersectionExampleScenario.node[15].veinsmobility 	totalCO2Emission 	143.47086469783
scalar IntersectionExampleScenario.node[16].appl 	VehicleRemoved 	0
scalar IntersectionExampleScenario.node[16].appl 	ArrivedAtDest 	1
scalar IntersectionExampleScenario.node[16].appl 	IntersectionEnterTime 	75
scalar IntersectionExampleScenario.node[16].appl 	IntersectionExitTime 	109.61290829926
scalar IntersectionExampleScenario.node[16].appl 	NumberOfCollisions 	0
scalar IntersectionExampleScenario.node[16].nic.phy80211p 	busyTime 	0
scalar IntersectionExampleScenario.node[16].nic.mac1609_4 	ReceivedUnicastPackets 	0
scalar IntersectionExampleScenario.node[16].nic.mac1609_4 	ReceivedBroadcasts 	0
scalar IntersectionExampleScenario.node[16].nic.mac1609_4 	SentPackets 	0
scalar IntersectionExampleScenario.node[16].nic.mac1609_4 	SNIRLostPackets 	0
scalar IntersectionExampleScenario.node[16].nic.mac1609_4 	RXTXLostPackets 	0
scalar IntersectionExampleScenario.node[16].nic.mac1609_4 	TotalLostPackets 	0
scalar IntersectionExampleScenario.node[16].nic.mac1609_4 	DroppedPacketsInMac 	0
scalar IntersectionExampleScenario.node[16].nic.mac1609_4 	TooLittleTime 	0
scalar IntersectionExampleScenario.node[16].nic.mac1609_4 	TimesIntoBackoff 	0
scalar IntersectionExampleScenario.node[16].nic.mac1609_4 	SlotsBackoff 	0
scalar IntersectionExampleScenario.node[16].nic.mac1609_4 	NumInternalContention 	0
scalar IntersectionExampleScenario.node[16].nic.mac1609_4 	totalBusyTime 	0
scalar IntersectionExampleScenario.node[16].veinsmobility 	startTime 	75
scalar IntersectionExampleScenario.node[16].veinsmobility 	totalTime 	50.75
scalar IntersectionExampleScenario.node[16].veinsmobility 	stopTime 	126
scalar IntersectionExampleScenario.node[16].veinsmobility 	minSpeed 	0
scalar IntersectionExampleScenario.node[16].veinsmobility 	maxSpeed 	15.5
scalar IntersectionExampleScenario.node[16].veinsmobility 	totalDistance 	554.31394958496
scalar IntersectionExampleScenario.node[16].veinsmobility 	totalCO2Emission 	137.94192360408
scalar IntersectionExampleScenario.node[20].appl 	VehicleRemoved 	0
scalar IntersectionExampleScenario.node[20].appl 	ArrivedAtDest 	1
scalar IntersectionExampleScenario.node[20].appl 	IntersectionEnterTime 	85
scalar IntersectionExampleScenario.node[20].appl 	IntersectionExitTime 	110.53782883054
scalar IntersectionExampleScenario.node[20].appl 	NumberOfCollisions 	0
scalar IntersectionExampleScenario.node[20].nic.phy80211p 	busyTime 	0
scalar IntersectionExampleScenario.node[20].nic.mac1609_4 	ReceivedUnicastPackets 	0
scalar IntersectionExampleScenario.node[20].nic.mac1609_4 	ReceivedBroadcasts 	0
scalar IntersectionExampleScenario.node[20].nic.mac1609_4 	SentPackets 	0
scalar IntersectionExampleScenario.node[20].nic.mac1609_4 	SNIRLostPackets 	0
scalar IntersectionExampleScenario.node[20].nic.mac1609_4 	RXTXLostPackets 	0
scalar IntersectionExampleScenario.node[20].nic.mac1609_4 	TotalLostPackets 	0
scalar IntersectionExampleScenario.node[20].nic.mac1609_4 	DroppedPacketsInMac 	0
scalar IntersectionExampleScenario.node[20].nic.mac1609_4 	TooLittleTime 	0
scalar IntersectionExampleScenario.node[20].nic.mac1609_4 	TimesIntoBackoff 	0
scalar IntersectionExampleScenario.node[20].nic.mac1609_4 	SlotsBackoff 	0
scalar IntersectionExampleScenario.node[20].nic.mac1609_4 	NumInternalContention 	0
scalar IntersectionExampleScenario.node[20].nic.mac1609_4 	totalBusyTime 	0
scalar IntersectionExampleScenario.node[20].veinsmobility 	startTime 	85
scalar IntersectionExampleScenario.node[20].veinsmobility 	totalTime 	41
scalar IntersectionExampleScenario.node[20].veinsmobility 	stopTime 	126.25
scalar IntersectionExampleScenario.node[20].veinsmobility 	minSpeed 	5.6500000953674
scalar IntersectionExampleScenario.node[20].veinsmobility 	maxSpeed 	16.125
scalar IntersectionExampleScenario.node[20].veinsmobility 	totalDistance 	551.83933258057
scalar IntersectionExampleScenario.node[20].veinsmobility 	totalCO2Emission 	134.50916837629
scalar IntersectionExampleScenario.node[18].appl 	VehicleRemoved 	0
scalar IntersectionExampleScenario.node[18].appl 	ArrivedAtDest 	1
scalar IntersectionExampleScenario.node[18].appl 	IntersectionEnterTime 	80.25
scalar IntersectionExampleScenario.node[18].appl 	IntersectionExitTime 	111.35215399406
scalar IntersectionExampleScenario.node[18].appl 	NumberOfCollisions 	0
scalar IntersectionExampleScenario.node[18].nic.phy80211p 	busyTime 	0
scalar IntersectionExampleScenario.node[18].nic.mac1609_4 	ReceivedUnicastPackets 	0
scalar IntersectionExampleScenario.node[18].nic.mac1609_4 	ReceivedBroadcasts 	0
scalar IntersectionExampleScenario.node[18].nic.mac1609_4 	SentPackets 	0
scalar IntersectionExampleScenario.node[18].nic.mac1609_4 	SNIRLostPackets 	0
scalar IntersectionExampleScenario.node[18].nic.mac1609_4 	RXTXLostPackets 	0
scalar IntersectionExampleScenario.node[18].nic.mac1609_4 	TotalLostPackets 	0
scalar IntersectionExampleScenario.node[18].nic.mac1609_4 	DroppedPacketsInMac 	0
scalar IntersectionExampleScenario.node[18].nic.mac1609_4 	TooLittleTime 	0
scalar IntersectionExampleScenario.node[18].nic.mac1609_4 	TimesIntoBackoff 	0
scalar IntersectionExampleScenario.node[18].nic.mac1609_4 	SlotsBackoff 	0
scalar IntersectionExampleScenario.node[18].nic.mac1609_4 	NumInternalContention 	0
scalar IntersectionExampleScenario.node[18].nic.mac1609_4 	totalBusyTime 	0
scalar IntersectionExampleScenario.node[18].veinsmobility 	startTime 	80.25
scalar IntersectionExampleScenario.node[18].veinsmobility 	totalTime 	47.75
scalar IntersectionExampleScenario.node[18].veinsmobility 	stopTime 	128.25
scalar IntersectionExampleScenario.node[18].veinsmobility 	minSpeed 	3.455249786377
scalar IntersectionExampleScenario.node[18].veinsmobility 	maxSpeed 	15.26669216156
scalar IntersectionExampleScenario.node[18].veinsmobility 	totalDistance 	543.93935744899
scalar IntersectionExampleScenario.node[18].veinsmobility 	totalCO2Emission 	139.40385333681
scalar IntersectionExampleScenario.node[21].appl 	VehicleRemoved 	0
scalar IntersectionExampleScenario.node[21].appl 	ArrivedAtDest 	1
scalar IntersectionExampleScenario.node[21].appl 	IntersectionEnterTime 	88.25
scalar IntersectionExampleScenario.node[21].appl 	IntersectionExitTime 	113.57686655884
scalar IntersectionExampleScenario.node[21].appl 	NumberOfCollisions 	0
scalar IntersectionExampleScenario.node[21].nic.phy80211p 	busyTime 	0
scalar IntersectionExampleScenario.node[21].nic.mac1609_4 	ReceivedUnicastPackets 	0
scalar IntersectionExampleScenario.node[21].nic.mac1609_4 	ReceivedBroadcasts 	0
scalar IntersectionExampleScenario.node[21].nic.mac1609_4 	SentPackets 	0
scalar IntersectionExampleScenario.node[21].nic.mac1609_4 	SNIRLostPackets 	0
scalar IntersectionExampleScenario.node[21].nic.mac1609_4 	RXTXLostPackets 	0
scalar IntersectionExampleScenario.node[21].nic.mac1609_4 	TotalLostPackets 	0
scalar IntersectionExampleScenario.node[21].nic.mac1609_4 	DroppedPacketsInMac 	0
scalar IntersectionExampleScenario.node[21].nic.mac1609_4 	TooLittleTime 	0
scalar IntersectionExampleScenario.node[21].nic.mac1609_4 	TimesIntoBackoff 	0
scalar IntersectionExampleScenario.node[21].nic.mac1609_4 	SlotsBackoff 	0
scalar IntersectionExampleScenario.node[21].nic.mac1609_4 	NumInternalContention 	0
scalar IntersectionExampleScenario.node[21].nic.mac1609_4 	totalBusyTime 	0
scalar IntersectionExampleScenario.node[21].veinsmobility 	startTime 	88.25
scalar IntersectionExampleScenario.node[21].veinsmobility 	totalTime 	41.75
scalar IntersectionExampleScenario.node[21].veinsmobility 	stopTime 	130.25
scalar IntersectionExampleScenario.node[21].veinsmobility 	minSpeed 	5.6500000953674
scalar IntersectionExampleScenario.node[21].veinsmobility 	maxSpeed 	15.64999961853
scalar IntersectionExampleScenario.node[21].veinsmobility 	totalDistance 	556.69671027761
scalar IntersectionExampleScenario.node[21].veinsmobility 	totalCO2Emission 	141.39002501297
scalar IntersectionExampleScenario.node[23].appl 	VehicleRemoved 	0
scalar IntersectionExampleScenario.node[23].appl 	ArrivedAtDest 	1
scalar IntersectionExampleScenario.node[23].appl 	IntersectionEnterTime 	95
scalar IntersectionExampleScenario.node[23].appl 	IntersectionExitTime 	118.07901146059
scalar IntersectionExampleScenario.node[23].appl 	NumberOfCollisions 	0
scalar IntersectionExampleScenario.node[23].nic.phy80211p 	busyTime 	0
scalar IntersectionExampleScenario.node[23].nic.mac1609_4 	ReceivedUnicastPackets 	0
scalar IntersectionExampleScenario.node[23].nic.mac1609_4 	ReceivedBroadcasts 	0
scalar IntersectionExampleScenario.node[23].nic.mac1609_4 	SentPackets 	0
scalar IntersectionExampleScenario.node[23].nic.mac1609_4 	SNIRLostPackets 	0
scalar IntersectionExampleScenario.node[23].nic.mac1609_4 	RXTXLostPackets 	0
scalar IntersectionExampleScenario.node[23].nic.mac1609_4 	TotalLostPackets 	0
scalar IntersectionExampleScenario.node[23].nic.mac1609_4 	DroppedPacketsInMac 	0
scalar IntersectionExampleScenario.node[23].nic.mac1609_4 	TooLittleTime 	0
scalar IntersectionExampleScenario.node[23].nic.mac1609_4 	TimesIntoBackoff 	0
scalar IntersectionExampleScenario.node[23].nic.mac1609_4 	SlotsBackoff 	0
scalar IntersectionExampleScenario.node[23].nic.mac1609_4 	NumInternalContention 	0
scalar IntersectionExampleScenario.node[23].nic.mac1609_4 	totalBusyTime 	0
scalar IntersectionExampleScenario.node[23].veinsmobility 	startTime 	95
scalar IntersectionExampleScenario.node[23].veinsmobility 	totalTime 	39.25
scalar IntersectionExampleScenario.node[23].veinsmobility 	stopTime 	134.5
scalar IntersectionExampleScenario.node[23].veinsmobility 	minSpeed 	5.6500000953674
scalar IntersectionExampleScenario.node[23].veinsmobility 	maxSpeed 	16.27499961853
scalar IntersectionExampleScenario.node[23].veinsmobility 	totalDistance 	543.03348042092
scalar IntersectionExampleScenario.node[23].veinsmobility 	totalCO2Emission 	129.59332638543
scalar IntersectionExampleScenario.node[24].appl 	VehicleRemoved 	0
scalar IntersectionExampleScenario.node[24].appl 	ArrivedAtDest 	1
scalar IntersectionExampleScenario.node[24].appl 	IntersectionEnterTime 	95.75
scalar IntersectionExampleScenario.node[24].appl 	IntersectionExitTime 	119.59891477885
scalar IntersectionExampleScenario.node[24].appl 	NumberOfCollisions 	0
scalar IntersectionExampleScenario.node[24].nic.phy80211p 	busyTime 	0
scalar IntersectionExampleScenario.node[24].nic.mac1609_4 	ReceivedUnicastPackets 	0
scalar IntersectionExampleScenario.node[24].nic.mac1609_4 	ReceivedBroadcasts 	0
scalar IntersectionExampleScenario.node[24].nic.mac1609_4 	SentPackets 	0
scalar IntersectionExampleScenario.node[24].nic.mac1609_4 	SNIRLostPackets 	0
scalar IntersectionExampleScenario.node[24].nic.mac1609_4 	RXTXLostPackets 	0
scalar IntersectionExampleScenario.node[24].nic.mac1609_4 	TotalLostPackets 	0
scalar IntersectionExampleScenario.node[24].nic.mac1609_4 	DroppedPacketsInMac 	0
scalar IntersectionExampleScenario.node[24].nic.mac1609_4 	TooLittleTime 	0
scalar IntersectionExampleScenario.node[24].nic.mac1609_4 	TimesIntoBackoff 	0
scalar IntersectionExampleScenario.node[24].nic.mac1609_4 	SlotsBackoff 	0
scalar IntersectionExampleScenario.node[24].nic.mac1609_4 	NumInternalContention 	0
scalar IntersectionExampleScenario.node[24].nic.mac1609_4 	totalBusyTime 	0
scalar IntersectionExampleScenario.node[24].veinsmobility 	startTime 	95.75
scalar IntersectionExampleScenario.node[24].veinsmobility 	totalTime 	40.75
scalar IntersectionExampleScenario.node[24].veinsmobility 	stopTime 	136.75
scalar IntersectionExampleScenario.node[24].veinsmobility 	minSpeed 	5.6500000953674
scalar IntersectionExampleScenario.node[24].veinsmobility 	maxSpeed 	15.382746696472
scalar IntersectionExampleScenario.node[24].veinsmobility 	totalDistance 	546.43092941436
scalar IntersectionExampleScenario.node[24].veinsmobility 	totalCO2Emission 	125.1840310583
scalar IntersectionExampleScenario.node[26].appl 	VehicleRemoved 	0
scalar IntersectionExampleScenario.node[26].appl 	ArrivedAtDest 	1
scalar IntersectionExampleScenario.node[26].appl 	IntersectionEnterTime 	99.5
scalar IntersectionExampleScenario.node[26].appl 	IntersectionExitTime 	122.35520514348
scalar IntersectionExampleScenario.node[26].appl 	NumberOfCollisions 	0
scalar IntersectionExampleScenario.node[26].nic.phy80211p 	busyTime 	0
scalar IntersectionExampleScenario.node[26].nic.mac1609_4 	ReceivedUnicastPackets 	0
scalar IntersectionExampleScenario.node[26].nic.mac1609_4 	ReceivedBroadcasts 	0
scalar IntersectionExampleScenario.node[26].nic.mac1609_4 	SentPackets 	0
scalar IntersectionExampleScenario.node[26].nic.mac1609_4 	SNIRLostPackets 	0
scalar IntersectionExampleScenario.node[26].nic.mac1609_4 	RXTXLostPackets 	0
scalar IntersectionExampleScenario.node[26].nic.mac1609_4 	TotalLostPackets 	0
scalar IntersectionExampleScenario.node[26].nic.mac1609_4 	DroppedPacketsInMac 	0
scalar IntersectionExampleScenario.node[26].nic.mac1609_4 	TooLittleTime 	0
scalar IntersectionExampleScenario.node[26].nic.mac1609_4 	TimesIntoBackoff 	0
scalar IntersectionExampleScenario.node[26].nic.mac1609_4 	SlotsBackoff 	0
scalar IntersectionExampleScenario.node[26].nic.mac1609_4 	NumInternalContention 	0
scalar IntersectionExampleScenario.node[26].nic.mac1609_4 	totalBusyTime 	0
scalar IntersectionExampleScenario.node[26].veinsmobility 	startTime 	99.5
scalar IntersectionExampleScenario.node[26].veinsmobility 	totalTime 	38.5
scalar IntersectionExampleScenario.node[26].veinsmobility 	stopTime 	138.25
scalar IntersectionExampleScenario.node[26].veinsmobility 	minSpeed 	5.6500000953674
scalar IntersectionExampleScenario.node[26].veinsmobility 	maxSpeed 	16.27499961853
scalar IntersectionExampleScenario.node[26].veinsmobility 	totalDistance 	550.5310841
scalar IntersectionExampleScenario.node[26].veinsmobility 	totalCO2Emission 	126.66342027791
scalar IntersectionExampleScenario.node[22].appl 	VehicleRemoved 	0
scalar IntersectionExampleScenario.node[22].appl 	ArrivedAtDest 	1
scalar IntersectionExampleScenario.node[22].appl 	IntersectionEnterTime 	88.75
scalar IntersectionExampleScenario.node[22].appl 	IntersectionExitTime 	123.56744694081
scalar IntersectionExampleScenario.node[22].appl 	NumberOfCollisions 	0
scalar IntersectionExampleScenario.node[22].nic.phy80211p 	busyTime 	0
scalar IntersectionExampleScenario.node[22].nic.mac1609_4 	ReceivedUnicastPackets 	0
scalar IntersectionExampleScenario.node[22].nic.mac1609_4 	ReceivedBroadcasts 	0
scalar IntersectionExampleScenario.node[22].nic.mac1609_4 	SentPackets 	0
scalar IntersectionExampleScenario.node[22].nic.mac1609_4 	SNIRLostPackets 	0
scalar IntersectionExampleScenario.node[22].nic.mac1609_4 	RXTXLostPackets 	0
scalar IntersectionExampleScenario.node[22].nic.mac1609_4 	TotalLostPackets 	0
scalar IntersectionExampleScenario.node[22].nic.mac1609_4 	DroppedPacketsInMac 	0
scalar IntersectionExampleScenario.node[22].nic.mac1609_4 	TooLittleTime 	0
scalar IntersectionExampleScenario.node[22].nic.mac1609_4 	TimesIntoBackoff 	0
scalar IntersectionExampleScenario.node[22].nic.mac1609_4 	SlotsBackoff 	0
scalar IntersectionExampleScenario.node[22].nic.mac1609_4 	NumInternalContention 	0
scalar IntersectionExampleScenario.node[22].nic.mac1609_4 	totalBusyTime 	0
scalar IntersectionExampleScenario.node[22].veinsmobility 	startTime 	88.75
scalar IntersectionExampleScenario.node[22].veinsmobility 	totalTime 	51.25
scalar IntersectionExampleScenario.node[22].veinsmobility 	stopTime 	140.25
scalar IntersectionExampleScenario.node[22].veinsmobility 	minSpeed 	0
scalar IntersectionExampleScenario.node[22].veinsmobility 	maxSpeed 	15.875
scalar IntersectionExampleScenario.node[22].veinsmobility 	totalDistance 	542.81210233123
scalar IntersectionExampleScenario.node[22].veinsmobility 	totalCO2Emission 	144.23747612696
scalar IntersectionExampleScenario.node[25].appl 	VehicleRemoved 	0
scalar IntersectionExampleScenario.node[25].appl 	ArrivedAtDest 	1
scalar IntersectionExampleScenario.node[25].appl 	IntersectionEnterTime 	97.75
scalar IntersectionExampleScenario.node[25].appl 	IntersectionExitTime 	126.36464908844
scalar IntersectionExampleScenario.node[25].appl 	NumberOfCollisions 	0
scalar IntersectionExampleScenario.node[25].nic.phy80211p 	busyTime 	0
scalar IntersectionExampleScenario.node[25].nic.mac1609_4 	ReceivedUnicastPackets 	0
scalar IntersectionExampleScenario.node[25].nic.mac1609_4 	ReceivedBroadcasts 	0
scalar IntersectionExampleScenario.node[25].nic.mac1609_4 	SentPackets 	0
scalar IntersectionExampleScenario.node[25].nic.mac1609_4 	SNIRLostPackets 	0
scalar IntersectionExampleScenario.node[25].nic.mac1609_4 	RXTXLostPackets 	0
scalar IntersectionExampleScenario.node[25].nic.mac1609_4 	TotalLostPackets 	0
scalar IntersectionExampleScenario.node[25].nic.mac1609_4 	DroppedPacketsInMac 	0
scalar IntersectionExampleScenario.node[25].nic.mac1609_4 	TooLittleTime 	0
scalar IntersectionExampleScenario.node[25].nic.mac1609_4 	TimesIntoBackoff 	0
scalar IntersectionExampleScenario.node[25].nic.mac1609_4 	SlotsBackoff 	0
scalar IntersectionExampleScenario.node[25].nic.mac1609_4 	NumInternalContention 	0
scalar IntersectionExampleScenario.node[25].nic.mac1609_4 	totalBusyTime 	0
scalar IntersectionExampleScenario.node[25].veinsmobility 	startTime 	97.75
scalar IntersectionExampleScenario.node[25].veinsmobility 	totalTime 	45
scalar IntersectionExampleScenario.node[25].veinsmobility 	stopTime 	143
scalar IntersectionExampleScenario.node[25].veinsmobility 	minSpeed 	3.7911629676819
scalar IntersectionExampleScenario.node[25].veinsmobility 	maxSpeed 	15.875
scalar IntersectionExampleScenario.node[25].veinsmobility 	totalDistance 	545.80366112394
scalar IntersectionExampleScenario.node[25].veinsmobility 	totalCO2Emission 	135.16684339751
scalar IntersectionExampleScenario.node[28].appl 	VehicleRemoved 	0
scalar IntersectionExampleScenario.node[28].appl 	ArrivedAtDest 	1
scalar IntersectionExampleScenario.node[28].appl 	IntersectionEnterTime 	108.5
scalar IntersectionExampleScenario.node[28].appl 	IntersectionExitTime 	132.06503899311
scalar IntersectionExampleScenario.node[28].appl 	NumberOfCollisions 	0
scalar IntersectionExampleScenario.node[28].nic.phy80211p 	busyTime 	0
scalar IntersectionExampleScenario.node[28].nic.mac1609_4 	ReceivedUnicastPackets 	0
scalar IntersectionExampleScenario.node[28].nic.mac1609_4 	ReceivedBroadcasts 	0
scalar IntersectionExampleScenario.node[28].nic.mac1609_4 	SentPackets 	0
scalar IntersectionExampleScenario.node[28].nic.mac1609_4 	SNIRLostPackets 	0
scalar IntersectionExampleScenario.node[28].nic.mac1609_4 	RXTXLostPackets 	0
scalar IntersectionExampleScenario.node[28].nic.mac1609_4 	TotalLostPackets 	0
scalar IntersectionExampleScenario.node[28].nic.mac1609_4 	DroppedPacketsInMac 	0
scalar IntersectionExampleScenario.node[28].nic.mac1609_4 	TooLittleTime 	0
scalar IntersectionExampleScenario.node[28].nic.mac1609_4 	TimesIntoBackoff 	0
scalar IntersectionExampleScenario.node[28].nic.mac1609_4 	SlotsBackoff 	0
scalar IntersectionExampleScenario.node[28].nic.mac1609_4 	NumInternalContention 	0
scalar IntersectionExampleScenario.node[28].nic.mac1609_4 	totalBusyTime 	0
scalar IntersectionExampleScenario.node[28].veinsmobility 	startTime 	108.5
scalar IntersectionExampleScenario.node[28].veinsmobility 	totalTime 	40.25
scalar IntersectionExampleScenario.node[28].veinsmobility 	stopTime 	149
scalar IntersectionExampleScenario.node[28].veinsmobility 	minSpeed 	5.6500000953674
scalar IntersectionExampleScenario.node[28].veinsmobility 	maxSpeed 	15.64999961853
scalar IntersectionExampleScenario.node[28].veinsmobility 	totalDistance 	544.58708887318
scalar IntersectionExampleScenario.node[28].veinsmobility 	totalCO2Emission 	128.44935313526
scalar IntersectionExampleScenario.node[19].appl 	VehicleRemoved 	0
scalar IntersectionExampleScenario.node[19].appl 	ArrivedAtDest 	1
scalar IntersectionExampleScenario.node[19].appl 	IntersectionEnterTime 	83.25
scalar IntersectionExampleScenario.node[19].appl 	IntersectionExitTime 	138.50101813048
scalar IntersectionExampleScenario.node[19].appl 	NumberOfCollisions 	0
scalar IntersectionExampleScenario.node[19].nic.phy80211p 	busyTime 	0
scalar IntersectionExampleScenario.node[19].nic.mac1609_4 	ReceivedUnicastPackets 	0
scalar IntersectionExampleScenario.node[19].nic.mac1609_4 	ReceivedBroadcasts 	0
scalar IntersectionExampleScenario.node[19].nic.mac1609_4 	SentPackets 	0
scalar IntersectionExampleScenario.node[19].nic.mac1609_4 	SNIRLostPackets 	0
scalar IntersectionExampleScenario.node[19].nic.mac1609_4 	RXTXLostPackets 	0
scalar IntersectionExampleScenario.node[19].nic.mac1609_4 	TotalLostPackets 	0
scalar IntersectionExampleScenario.node[19].nic.mac1609_4 	DroppedPacketsInMac 	0
scalar IntersectionExampleScenario.node[19].nic.mac1609_4 	TooLittleTime 	0
scalar IntersectionExampleScenario.node[19].nic.mac1609_4 	TimesIntoBackoff 	0
scalar IntersectionExampleScenario.node[19].nic.mac1609_4 	SlotsBackoff 	0
scalar IntersectionExampleScenario.node[19].nic.mac1609_4 	NumInternalContention 	0
scalar IntersectionExampleScenario.node[19].nic.mac1609_4 	totalBusyTime 	0
scalar IntersectionExampleScenario.node[19].veinsmobility 	startTime 	83.25
scalar IntersectionExampleScenario.node[19].veinsmobility 	totalTime 	72.75
scalar IntersectionExampleScenario.node[19].veinsmobility 	stopTime 	156.25
scalar IntersectionExampleScenario.node[19].veinsmobility 	minSpeed 	0
scalar IntersectionExampleScenario.node[19].veinsmobility 	maxSpeed 	15.02499961853
scalar IntersectionExampleScenario.node[19].veinsmobility 	totalDistance 	545.6454229489
scalar IntersectionExampleScenario.node[19].veinsmobility 	totalCO2Emission 	159.44527640952
scalar IntersectionExampleScenario.node[29].appl 	VehicleRemoved 	0
scalar IntersectionExampleScenario.node[29].appl 	ArrivedAtDest 	1
scalar IntersectionExampleScenario.node[29].appl 	IntersectionEnterTime 	110.25
scalar IntersectionExampleScenario.node[29].appl 	IntersectionExitTime 	140.5632182103
scalar IntersectionExampleScenario.node[29].appl 	NumberOfCollisions 	0
scalar IntersectionExampleScenario.node[29].nic.phy80211p 	busyTime 	0
scalar IntersectionExampleScenario.node[29].nic.mac1609_4 	ReceivedUnicastPackets 	0
scalar IntersectionExampleScenario.node[29].nic.mac1609_4 	ReceivedBroadcasts 	0
scalar IntersectionExampleScenario.node[29].nic.mac1609_4 	SentPackets 	0
scalar IntersectionExampleScenario.node[29].nic.mac1609_4 	SNIRLostPackets 	0
scalar IntersectionExampleScenario.node[29].nic.mac1609_4 	RXTXLostPackets 	0
scalar IntersectionExampleScenario.node[29].nic.mac1609_4 	TotalLostPackets 	0
scalar IntersectionExampleScenario.node[29].nic.mac1609_4 	DroppedPacketsInMac 	0
scalar IntersectionExampleScenario.node[29].nic.mac1609_4 	TooLittleTime 	0
scalar IntersectionExampleScenario.node[29].nic.mac1609_4 	TimesIntoBackoff 	0
scalar IntersectionExampleScenario.node[29].nic.mac1609_4 	SlotsBackoff 	0
scalar IntersectionExampleScenario.node[29].nic.mac1609_4 	NumInternalContention 	0
scalar IntersectionExampleScenario.node[29].nic.mac1609_4 	totalBusyTime 	0
scalar IntersectionExampleScenario.node[29].veinsmobility 	startTime 	110.25
scalar IntersectionExampleScenario.node[29].veinsmobility 	totalTime 	46
scalar IntersectionExampleScenario.node[29].veinsmobility 	stopTime 	156.5
scalar IntersectionExampleScenario.node[29].veinsmobility 	minSpeed 	2.2988510131836
scalar IntersectionExampleScenario.node[29].veinsmobility 	maxSpeed 	16.27499961853
scalar IntersectionExampleScenario.node[29].veinsmobility 	totalDistance 	550.64690712716
scalar IntersectionExampleScenario.node[29].veinsmobility 	totalCO2Emission 	140.04456937079
scalar IntersectionExampleScenario.node[30].appl 	VehicleRemoved 	0
scalar IntersectionExampleScenario.node[30].appl 	ArrivedAtDest 	1
scalar IntersectionExampleScenario.node[30].appl 	IntersectionEnterTime 	114.25
scalar IntersectionExampleScenario.node[30].appl 	IntersectionExitTime 	142.59720675545
scalar IntersectionExampleScenario.node[30].appl 	NumberOfCollisions 	0
scalar IntersectionExampleScenario.node[30].nic.phy80211p 	busyTime 	0
scalar IntersectionExampleScenario.node[30].nic.mac1609_4 	ReceivedUnicastPackets 	0
scalar IntersectionExampleScenario.node[30].nic.mac1609_4 	ReceivedBroadcasts 	0
scalar IntersectionExampleScenario.node[30].nic.mac1609_4 	SentPackets 	0
scalar IntersectionExampleScenario.node[30].nic.mac1609_4 	SNIRLostPackets 	0
scalar IntersectionExampleScenario.node[30].nic.mac1609_4 	RXTXLostPackets 	0
scalar IntersectionExampleScenario.node[30].nic.mac1609_4 	TotalLostPackets 	0
scalar IntersectionExampleScenario.node[30].nic.mac1609_4 	DroppedPacketsInMac 	0
scalar IntersectionExampleScenario.node[30].nic.mac1609_4 	TooLittleTime 	0
scalar IntersectionExampleScenario.node[30].nic.mac1609_4 	TimesIntoBackoff 	0
scalar IntersectionExampleScenario.node[30].nic.mac1609_4 	SlotsBackoff 	0
scalar IntersectionExampleScenario.node[30].nic.mac1609_4 	NumInternalContention 	0
scalar IntersectionExampleScenario.node[30].nic.mac1609_4 	totalBusyTime 	0
scalar IntersectionExampleScenario.node[30].veinsmobility 	startTime 	114.25
scalar IntersectionExampleScenario.node[30].veinsmobility 	totalTime 	44.5
scalar IntersectionExampleScenario.node[30].veinsmobility 	stopTime 	159
scalar IntersectionExampleScenario.node[30].veinsmobility 	minSpeed 	5.0077662467957
scalar IntersectionExampleScenario.node[30].veinsmobility 	maxSpeed 	15.5
scalar IntersectionExampleScenario.node[30].veinsmobility 	totalDistance 	559.29454040527
scalar IntersectionExampleScenario.node[30].veinsmobility 	totalCO2Emission 	136.04222792941
scalar IntersectionExampleScenario.node[33].appl 	VehicleRemoved 	0
scalar IntersectionExampleScenario.node[33].appl 	ArrivedAtDest 	1
scalar IntersectionExampleScenario.node[33].appl 	IntersectionEnterTime 	120.75
scalar IntersectionExampleScenario.node[33].appl 	IntersectionExitTime 	145.03275963257
scalar IntersectionExampleScenario.node[33].appl 	NumberOfCollisions 	0
scalar IntersectionExampleScenario.node[33].nic.phy80211p 	busyTime 	0
scalar IntersectionExampleScenario.node[33].nic.mac1609_4 	ReceivedUnicastPackets 	0
scalar IntersectionExampleScenario.node[33].nic.mac1609_4 	ReceivedBroadcasts 	0
scalar IntersectionExampleScenario.node[33].nic.mac1609_4 	SentPackets 	0
scalar IntersectionExampleScenario.node[33].nic.mac1609_4 	SNIRLostPackets 	0
scalar IntersectionExampleScenario.node[33].nic.mac1609_4 	RXTXLostPackets 	0
scalar IntersectionExampleScenario.node[33].nic.mac1609_4 	TotalLostPackets 	0
scalar IntersectionExampleScenario.node[33].nic.mac1609_4 	DroppedPacketsInMac 	0
scalar IntersectionExampleScenario.node[33].nic.mac1609_4 	TooLittleTime 	0
scalar IntersectionExampleScenario.node[33].nic.mac1609_4 	TimesIntoBackoff 	0
scalar IntersectionExampleScenario.node[33].nic.mac1609_4 	SlotsBackoff 	0
scalar IntersectionExampleScenario.node[33].nic.mac1609_4 	NumInternalContention 	0
scalar IntersectionExampleScenario.node[33].nic.mac1609_4 	totalBusyTime 	0
scalar IntersectionExampleScenario.node[33].veinsmobility 	startTime 	120.75
scalar IntersectionExampleScenario.node[33].veinsmobility 	totalTime 	40
scalar IntersectionExampleScenario.node[33].veinsmobility 	stopTime 	161
scalar IntersectionExampleScenario.node[33].veinsmobility 	minSpeed 	5.6500000953674
scalar IntersectionExampleScenario.node[33].veinsmobility 	maxSpeed 	16.00470161438
scalar IntersectionExampleScenario.node[33].veinsmobility 	totalDistance 	550.49731436834
scalar IntersectionExampleScenario.node[33].veinsmobility 	totalCO2Emission 	135.55761118923
scalar IntersectionExampleScenario.node[31].appl 	VehicleRemoved 	0
scalar IntersectionExampleScenario.node[31].appl 	ArrivedAtDest 	1
scalar IntersectionExampleScenario.node[31].appl 	IntersectionEnterTime 	114.75
scalar IntersectionExampleScenario.node[31].appl 	IntersectionExitTime 	153.25423046804
scalar IntersectionExampleScenario.node[31].appl 	NumberOfCollisions 	0
scalar IntersectionExampleScenario.node[31].nic.phy80211p 	busyTime 	0
scalar IntersectionExampleScenario.node[31].nic.mac1609_4 	ReceivedUnicastPackets 	0
scalar IntersectionExampleScenario.node[31].nic.mac1609_4 	ReceivedBroadcasts 	0
scalar IntersectionExampleScenario.node[31].nic.mac1609_4 	SentPackets 	0
scalar IntersectionExampleScenario.node[31].nic.mac1609_4 	SNIRLostPackets 	0
scalar IntersectionExampleScenario.node[31].nic.mac1609_4 	RXTXLostPackets 	0
scalar IntersectionExampleScenario.node[31].nic.mac1609_4 	TotalLostPackets 	0
scalar IntersectionExampleScenario.node[31].nic.mac1609_4 	DroppedPacketsInMac 	0
scalar IntersectionExampleScenario.node[31].nic.mac1609_4 	TooLittleTime 	0
scalar IntersectionExampleScenario.node[31].nic.mac1609_4 	TimesIntoBackoff 	0
scalar IntersectionExampleScenario.node[31].nic.mac1609_4 	SlotsBackoff 	0
scalar IntersectionExampleScenario.node[31].nic.mac1609_4 	NumInternalContention 	0
scalar IntersectionExampleScenario.node[31].nic.mac1609_4 	totalBusyTime 	0
scalar IntersectionExampleScenario.node[31].veinsmobility 	startTime 	114.75
scalar IntersectionExampleScenario.node[31].veinsmobility 	totalTime 	54.75
scalar IntersectionExampleScenario.node[31].veinsmobility 	stopTime 	169.75
scalar IntersectionExampleScenario.node[31].veinsmobility 	minSpeed 	0
scalar IntersectionExampleScenario.node[31].veinsmobility 	maxSpeed 	15.375
scalar IntersectionExampleScenario.node[31].veinsmobility 	totalDistance 	552.79933166504
scalar IntersectionExampleScenario.node[31].veinsmobility 	totalCO2Emission 	144.92916206543
scalar IntersectionExampleScenario.node[27].appl 	VehicleRemoved 	0
scalar IntersectionExampleScenario.node[27].appl 	ArrivedAtDest 	1
scalar IntersectionExampleScenario.node[27].appl 	IntersectionEnterTime 	102
scalar IntersectionExampleScenario.node[27].appl 	IntersectionExitTime 	152.53923157579
scalar IntersectionExampleScenario.node[27].appl 	NumberOfCollisions 	0
scalar IntersectionExampleScenario.node[27].nic.phy80211p 	busyTime 	0
scalar IntersectionExampleScenario.node[27].nic.mac1609_4 	ReceivedUnicastPackets 	0
scalar IntersectionExampleScenario.node[27].nic.mac1609_4 	ReceivedBroadcasts 	0
scalar IntersectionExampleScenario.node[27].nic.mac1609_4 	SentPackets 	0
scalar IntersectionExampleScenario.node[27].nic.mac1609_4 	SNIRLostPackets 	0
scalar IntersectionExampleScenario.node[27].nic.mac1609_4 	RXTXLostPackets 	0
scalar IntersectionExampleScenario.node[27].nic.mac1609_4 	TotalLostPackets 	0
scalar IntersectionExampleScenario.node[27].nic.mac1609_4 	DroppedPacketsInMac 	0
scalar IntersectionExampleScenario.node[27].nic.mac1609_4 	TooLittleTime 	0
scalar IntersectionExampleScenario.node[27].nic.mac1609_4 	TimesIntoBackoff 	0
scalar IntersectionExampleScenario.node[27].nic.mac1609_4 	SlotsBackoff 	0
scalar IntersectionExampleScenario.node[27].nic.mac1609_4 	NumInternalContention 	0
scalar IntersectionExampleScenario.node[27].nic.mac1609_4 	totalBusyTime 	0
scalar IntersectionExampleScenario.node[27].veinsmobility 	startTime 	102
scalar IntersectionExampleScenario.node[27].veinsmobility 	totalTime 	68.25
scalar IntersectionExampleScenario.node[27].veinsmobility 	stopTime 	170.5
scalar IntersectionExampleScenario.node[27].veinsmobility 	minSpeed 	0
scalar IntersectionExampleScenario.node[27].veinsmobility 	maxSpeed 	14.625
scalar IntersectionExampleScenario.node[27].veinsmobility 	totalDistance 	546.3644552365
scalar IntersectionExampleScenario.node[27].veinsmobility 	totalCO2Emission 	151.86654124868
scalar IntersectionExampleScenario.node[34].appl 	VehicleRemoved 	0
scalar IntersectionExampleScenario.node[34].appl 	ArrivedAtDest 	1
scalar IntersectionExampleScenario.node[34].appl 	IntersectionEnterTime 	123.25
scalar IntersectionExampleScenario.node[34].appl 	IntersectionExitTime 	154.37016398175
scalar IntersectionExampleScenario.node[34].appl 	NumberOfCollisions 	0
scalar IntersectionExampleScenario.node[34].nic.phy80211p 	busyTime 	0
scalar IntersectionExampleScenario.node[34].nic.mac1609_4 	ReceivedUnicastPackets 	0
scalar IntersectionExampleScenario.node[34].nic.mac1609_4 	ReceivedBroadcasts 	0
scalar IntersectionExampleScenario.node[34].nic.mac1609_4 	SentPackets 	0
scalar IntersectionExampleScenario.node[34].nic.mac1609_4 	SNIRLostPackets 	0
scalar IntersectionExampleScenario.node[34].nic.mac1609_4 	RXTXLostPackets 	0
scalar IntersectionExampleScenario.node[34].nic.mac1609_4 	TotalLostPackets 	0
scalar IntersectionExampleScenario.node[34].nic.mac1609_4 	DroppedPacketsInMac 	0
scalar IntersectionExampleScenario.node[34].nic.mac1609_4 	TooLittleTime 	0
scalar IntersectionExampleScenario.node[34].nic.mac1609_4 	TimesIntoBackoff 	0
scalar IntersectionExampleScenario.node[34].nic.mac1609_4 	SlotsBackoff 	0
scalar IntersectionExampleScenario.node[34].nic.mac1609_4 	NumInternalContention 	0
scalar IntersectionExampleScenario.node[34].nic.mac1609_4 	totalBusyTime 	0
scalar IntersectionExampleScenario.node[34].veinsmobility 	startTime 	123.25
scalar IntersectionExampleScenario.node[34].veinsmobility 	totalTime 	47.25
scalar IntersectionExampleScenario.node[34].veinsmobility 	stopTime 	170.75
scalar IntersectionExampleScenario.node[34].veinsmobility 	minSpeed 	1.8606315851212
scalar IntersectionExampleScenario.node[34].veinsmobility 	maxSpeed 	16.27499961853
scalar IntersectionExampleScenario.node[34].veinsmobility 	totalDistance 	542.93439444358
scalar IntersectionExampleScenario.node[34].veinsmobility 	totalCO2Emission 	138.50281939714
scalar IntersectionExampleScenario.node[32].appl 	VehicleRemoved 	0
scalar IntersectionExampleScenario.node[32].appl 	ArrivedAtDest 	1
scalar IntersectionExampleScenario.node[32].appl 	IntersectionEnterTime 	120
scalar IntersectionExampleScenario.node[32].appl 	IntersectionExitTime 	155.01461402691
scalar IntersectionExampleScenario.node[32].appl 	NumberOfCollisions 	0
scalar IntersectionExampleScenario.node[32].nic.phy80211p 	busyTime 	0
scalar IntersectionExampleScenario.node[32].nic.mac1609_4 	ReceivedUnicastPackets 	0
scalar IntersectionExampleScenario.node[32].nic.mac1609_4 	ReceivedBroadcasts 	0
scalar IntersectionExampleScenario.node[32].nic.mac1609_4 	SentPackets 	0
scalar IntersectionExampleScenario.node[32].nic.mac1609_4 	SNIRLostPackets 	0
scalar IntersectionExampleScenario.node[32].nic.mac1609_4 	RXTXLostPackets 	0
scalar IntersectionExampleScenario.node[32].nic.mac1609_4 	TotalLostPackets 	0
scalar IntersectionExampleScenario.node[32].nic.mac1609_4 	DroppedPacketsInMac 	0
scalar IntersectionExampleScenario.node[32].nic.mac1609_4 	TooLittleTime 	0
scalar IntersectionExampleScenario.node[32].nic.mac1609_4 	TimesIntoBackoff 	0
scalar IntersectionExampleScenario.node[32].nic.mac1609_4 	SlotsBackoff 	0
scalar IntersectionExampleScenario.node[32].nic.mac1609_4 	NumInternalContention 	0
scalar IntersectionExampleScenario.node[32].nic.mac1609_4 	totalBusyTime 	0
scalar IntersectionExampleScenario.node[32].veinsmobility 	startTime 	120
scalar IntersectionExampleScenario.node[32].veinsmobility 	totalTime 	51.75
scalar IntersectionExampleScenario.node[32].veinsmobility 	stopTime 	172
scalar IntersectionExampleScenario.node[32].veinsmobility 	minSpeed 	0
scalar IntersectionExampleScenario.node[32].veinsmobility 	maxSpeed 	15.64999961853
scalar IntersectionExampleScenario.node[32].veinsmobility 	totalDistance 	547.02940860048
scalar IntersectionExampleScenario.node[32].veinsmobility 	totalCO2Emission 	141.49383895828
scalar IntersectionExampleScenario.node[35].appl 	VehicleRemoved 	0
scalar IntersectionExampleScenario.node[35].appl 	ArrivedAtDest 	1
scalar IntersectionExampleScenario.node[35].appl 	IntersectionEnterTime 	132.75
scalar IntersectionExampleScenario.node[35].appl 	IntersectionExitTime 	158.12188079697
scalar IntersectionExampleScenario.node[35].appl 	NumberOfCollisions 	0
scalar IntersectionExampleScenario.node[35].nic.phy80211p 	busyTime 	0
scalar IntersectionExampleScenario.node[35].nic.mac1609_4 	ReceivedUnicastPackets 	0
scalar IntersectionExampleScenario.node[35].nic.mac1609_4 	ReceivedBroadcasts 	0
scalar IntersectionExampleScenario.node[35].nic.mac1609_4 	SentPackets 	0
scalar IntersectionExampleScenario.node[35].nic.mac1609_4 	SNIRLostPackets 	0
scalar IntersectionExampleScenario.node[35].nic.mac1609_4 	RXTXLostPackets 	0
scalar IntersectionExampleScenario.node[35].nic.mac1609_4 	TotalLostPackets 	0
scalar IntersectionExampleScenario.node[35].nic.mac1609_4 	DroppedPacketsInMac 	0
scalar IntersectionExampleScenario.node[35].nic.mac1609_4 	TooLittleTime 	0
scalar IntersectionExampleScenario.node[35].nic.mac1609_4 	TimesIntoBackoff 	0
scalar IntersectionExampleScenario.node[35].nic.mac1609_4 	SlotsBackoff 	0
scalar IntersectionExampleScenario.node[35].nic.mac1609_4 	NumInternalContention 	0
scalar IntersectionExampleScenario.node[35].nic.mac1609_4 	totalBusyTime 	0
scalar IntersectionExampleScenario.node[35].veinsmobility 	startTime 	132.75
scalar IntersectionExampleScenario.node[35].veinsmobility 	totalTime 	41.75
scalar IntersectionExampleScenario.node[35].veinsmobility 	stopTime 	174.75
scalar IntersectionExampleScenario.node[35].veinsmobility 	minSpeed 	5.6500000953674
scalar IntersectionExampleScenario.node[35].veinsmobility 	maxSpeed 	15.875
scalar IntersectionExampleScenario.node[35].veinsmobility 	totalDistance 	543.13112029867
scalar IntersectionExampleScenario.node[35].veinsmobility 	totalCO2Emission 	137.48143911374
scalar IntersectionExampleScenario.node[37].appl 	VehicleRemoved 	0
scalar IntersectionExampleScenario.node[37].appl 	ArrivedAtDest 	1
scalar IntersectionExampleScenario.node[37].appl 	IntersectionEnterTime 	136
scalar IntersectionExampleScenario.node[37].appl 	IntersectionExitTime 	158.80713368228
scalar IntersectionExampleScenario.node[37].appl 	NumberOfCollisions 	0
scalar IntersectionExampleScenario.node[37].nic.phy80211p 	busyTime 	0
scalar IntersectionExampleScenario.node[37].nic.mac1609_4 	ReceivedUnicastPackets 	0
scalar IntersectionExampleScenario.node[37].nic.mac1609_4 	ReceivedBroadcasts 	0
scalar IntersectionExampleScenario.node[37].nic.mac1609_4 	SentPackets 	0
scalar IntersectionExampleScenario.node[37].nic.mac1609_4 	SNIRLostPackets 	0
scalar IntersectionExampleScenario.node[37].nic.mac1609_4 	RXTXLostPackets 	0
scalar IntersectionExampleScenario.node[37].nic.mac1609_4 	TotalLostPackets 	0
scalar IntersectionExampleScenario.node[37].nic.mac1609_4 	DroppedPacketsInMac 	0
scalar IntersectionExampleScenario.node[37].nic.mac1609_4 	TooLittleTime 	0
scalar IntersectionExampleScenario.node[37].nic.mac1609_4 	TimesIntoBackoff 	0
scalar IntersectionExampleScenario.node[37].nic.mac1609_4 	SlotsBackoff 	0
scalar IntersectionExampleScenario.node[37].nic.mac1609_4 	NumInternalContention 	0
scalar IntersectionExampleScenario.node[37].nic.mac1609_4 	totalBusyTime 	0
scalar IntersectionExampleScenario.node[37].veinsmobility 	startTime 	136
scalar IntersectionExampleScenario.node[37].veinsmobility 	totalTime 	38.75
scalar IntersectionExampleScenario.node[37].veinsmobility 	stopTime 	175
scalar IntersectionExampleScenario.node[37].veinsmobility 	minSpeed 	5.6500000953674
scalar IntersectionExampleScenario.node[37].veinsmobility 	maxSpeed 	15.710470199585
scalar IntersectionExampleScenario.node[37].veinsmobility 	totalDistance 	553.81504058838
scalar IntersectionExampleScenario.node[37].veinsmobility 	totalCO2Emission 	121.04606919617
scalar IntersectionExampleScenario.node[36].appl 	VehicleRemoved 	0
scalar IntersectionExampleScenario.node[36].appl 	ArrivedAtDest 	1
scalar IntersectionExampleScenario.node[36].appl 	IntersectionEnterTime 	134.25
scalar IntersectionExampleScenario.node[36].appl 	IntersectionExitTime 	159.80089985212
scalar IntersectionExampleScenario.node[36].appl 	NumberOfCollisions 	0
scalar IntersectionExampleScenario.node[36].nic.phy80211p 	busyTime 	0
scalar IntersectionExampleScenario.node[36].nic.mac1609_4 	ReceivedUnicastPackets 	0
scalar IntersectionExampleScenario.node[36].nic.mac1609_4 	ReceivedBroadcasts 	0
scalar IntersectionExampleScenario.node[36].nic.mac1609_4 	SentPackets 	0
scalar IntersectionExampleScenario.node[36].nic.mac1609_4 	SNIRLostPackets 	0
scalar IntersectionExampleScenario.node[36].nic.mac1609_4 	RXTXLostPackets 	0
scalar IntersectionExampleScenario.node[36].nic.mac1609_4 	TotalLostPackets 	0
scalar IntersectionExampleScenario.node[36].nic.mac1609_4 	DroppedPacketsInMac 	0
scalar IntersectionExampleScenario.node[36].nic.mac1609_4 	TooLittleTime 	0
scalar IntersectionExampleScenario.node[36].nic.mac1609_4 	TimesIntoBackoff 	0
scalar IntersectionExampleScenario.node[36].nic.mac1609_4 	SlotsBackoff 	0
scalar IntersectionExampleScenario.node[36].nic.mac1609_4 	NumInternalContention 	0
scalar IntersectionExampleScenario.node[36].nic.mac1609_4 	totalBusyTime 	0
scalar IntersectionExampleScenario.node[36].veinsmobility 	startTime 	134.25
scalar IntersectionExampleScenario.node[36].veinsmobility 	totalTime 	41.5
scalar IntersectionExampleScenario.node[36].veinsmobility 	stopTime 	176
scalar IntersectionExampleScenario.node[36].veinsmobility 	minSpeed 	5.6500000953674
scalar IntersectionExampleScenario.node[36].veinsmobility 	maxSpeed 	15.64999961853
scalar IntersectionExampleScenario.node[36].veinsmobility 	totalDistance 	573.96939086914
scalar IntersectionExampleScenario.node[36].veinsmobility 	totalCO2Emission 	130.7970794658
scalar IntersectionExampleScenario.node[38].appl 	VehicleRemoved 	0
scalar IntersectionExampleScenario.node[38].appl 	ArrivedAtDest 	1
scalar IntersectionExampleScenario.node[38].appl 	IntersectionEnterTime 	140.5
scalar IntersectionExampleScenario.node[38].appl 	IntersectionExitTime 	163.56344705506
scalar IntersectionExampleScenario.node[38].appl 	NumberOfCollisions 	0
scalar IntersectionExampleScenario.node[38].nic.phy80211p 	busyTime 	0
scalar IntersectionExampleScenario.node[38].nic.mac1609_4 	ReceivedUnicastPackets 	0
scalar IntersectionExampleScenario.node[38].nic.mac1609_4 	ReceivedBroadcasts 	0
scalar IntersectionExampleScenario.node[38].nic.mac1609_4 	SentPackets 	0
scalar IntersectionExampleScenario.node[38].nic.mac1609_4 	SNIRLostPackets 	0
scalar IntersectionExampleScenario.node[38].nic.mac1609_4 	RXTXLostPackets 	0
scalar IntersectionExampleScenario.node[38].nic.mac1609_4 	TotalLostPackets 	0
scalar IntersectionExampleScenario.node[38].nic.mac1609_4 	DroppedPacketsInMac 	0
scalar IntersectionExampleScenario.node[38].nic.mac1609_4 	TooLittleTime 	0
scalar IntersectionExampleScenario.node[38].nic.mac1609_4 	TimesIntoBackoff 	0
scalar IntersectionExampleScenario.node[38].nic.mac1609_4 	SlotsBackoff 	0
scalar IntersectionExampleScenario.node[38].nic.mac1609_4 	NumInternalContention 	0
scalar IntersectionExampleScenario.node[38].nic.mac1609_4 	totalBusyTime 	0
scalar IntersectionExampleScenario.node[38].veinsmobility 	startTime 	140.5
scalar IntersectionExampleScenario.node[38].veinsmobility 	totalTime 	39
scalar IntersectionExampleScenario.node[38].veinsmobility 	stopTime 	179.75
scalar IntersectionExampleScenario.node[38].veinsmobility 	minSpeed 	5.6500000953674
scalar IntersectionExampleScenario.node[38].veinsmobility 	maxSpeed 	16.257953643799
scalar IntersectionExampleScenario.node[38].veinsmobility 	totalDistance 	543.99532338873
scalar IntersectionExampleScenario.node[38].veinsmobility 	totalCO2Emission 	133.07529971242
scalar IntersectionExampleScenario.node[39].appl 	VehicleRemoved 	0
scalar IntersectionExampleScenario.node[39].appl 	ArrivedAtDest 	1
scalar IntersectionExampleScenario.node[39].appl 	IntersectionEnterTime 	143
scalar IntersectionExampleScenario.node[39].appl 	IntersectionExitTime 	165.80470291426
scalar IntersectionExampleScenario.node[39].appl 	NumberOfCollisions 	0
scalar IntersectionExampleScenario.node[39].nic.phy80211p 	busyTime 	0
scalar IntersectionExampleScenario.node[39].nic.mac1609_4 	ReceivedUnicastPackets 	0
scalar IntersectionExampleScenario.node[39].nic.mac1609_4 	ReceivedBroadcasts 	0
scalar IntersectionExampleScenario.node[39].nic.mac1609_4 	SentPackets 	0
scalar IntersectionExampleScenario.node[39].nic.mac1609_4 	SNIRLostPackets 	0
scalar IntersectionExampleScenario.node[39].nic.mac1609_4 	RXTXLostPackets 	0
scalar IntersectionExampleScenario.node[39].nic.mac1609_4 	TotalLostPackets 	0
scalar IntersectionExampleScenario.node[39].nic.mac1609_4 	DroppedPacketsInMac 	0
scalar IntersectionExampleScenario.node[39].nic.mac1609_4 	TooLittleTime 	0
[...]
scalar IntersectionExampleScenario.manager 	Direction-North-StDev 	10.10269819205
scalar IntersectionExampleScenario.manager 	Direction-East-StDev 	9.9371630980062
scalar IntersectionExampleScenario.node[537].appl 	VehicleRemoved 	0
scalar IntersectionExampleScenario.node[537].appl 	ArrivedAtDest 	0
scalar IntersectionExampleScenario.node[537].appl 	IntersectionEnterTime 	1748.25
scalar IntersectionExampleScenario.node[537].appl 	IntersectionExitTime 	1786.0638734732
scalar IntersectionExampleScenario.node[537].appl 	NumberOfCollisions 	0
scalar IntersectionExampleScenario.node[537].nic.phy80211p 	busyTime 	0
scalar IntersectionExampleScenario.node[537].nic.mac1609_4 	ReceivedUnicastPackets 	0
scalar IntersectionExampleScenario.node[537].nic.mac1609_4 	ReceivedBroadcasts 	0
scalar IntersectionExampleScenario.node[537].nic.mac1609_4 	SentPackets 	0
scalar IntersectionExampleScenario.node[537].nic.mac1609_4 	SNIRLostPackets 	0
scalar IntersectionExampleScenario.node[537].nic.mac1609_4 	RXTXLostPackets 	0
scalar IntersectionExampleScenario.node[537].nic.mac1609_4 	TotalLostPackets 	0
scalar IntersectionExampleScenario.node[537].nic.mac1609_4 	DroppedPacketsInMac 	0
scalar IntersectionExampleScenario.node[537].nic.mac1609_4 	TooLittleTime 	0
scalar IntersectionExampleScenario.node[537].nic.mac1609_4 	TimesIntoBackoff 	0
scalar IntersectionExampleScenario.node[537].nic.mac1609_4 	SlotsBackoff 	0
scalar IntersectionExampleScenario.node[537].nic.mac1609_4 	NumInternalContention 	0
scalar IntersectionExampleScenario.node[537].nic.mac1609_4 	totalBusyTime 	0
scalar IntersectionExampleScenario.node[537].veinsmobility 	startTime 	1748.25
scalar IntersectionExampleScenario.node[537].veinsmobility 	totalTime 	51.75
scalar IntersectionExampleScenario.node[537].veinsmobility 	stopTime 	1800
scalar IntersectionExampleScenario.node[537].veinsmobility 	minSpeed 	0
scalar IntersectionExampleScenario.node[537].veinsmobility 	maxSpeed 	16
scalar IntersectionExampleScenario.node[537].veinsmobility 	totalDistance 	518.7044250276
scalar IntersectionExampleScenario.node[537].veinsmobility 	totalCO2Emission 	147.92719668312
scalar IntersectionExampleScenario.node[538].appl 	VehicleRemoved 	0
scalar IntersectionExampleScenario.node[538].appl 	ArrivedAtDest 	0
scalar IntersectionExampleScenario.node[538].appl 	IntersectionEnterTime 	1754
scalar IntersectionExampleScenario.node[538].appl 	IntersectionExitTime 	-1
scalar IntersectionExampleScenario.node[538].appl 	NumberOfCollisions 	0
scalar IntersectionExampleScenario.node[538].nic.phy80211p 	busyTime 	0
scalar IntersectionExampleScenario.node[538].nic.mac1609_4 	ReceivedUnicastPackets 	0
scalar IntersectionExampleScenario.node[538].nic.mac1609_4 	ReceivedBroadcasts 	0
scalar IntersectionExampleScenario.node[538].nic.mac1609_4 	SentPackets 	0
scalar IntersectionExampleScenario.node[538].nic.mac1609_4 	SNIRLostPackets 	0
scalar IntersectionExampleScenario.node[538].nic.mac1609_4 	RXTXLostPackets 	0
scalar IntersectionExampleScenario.node[538].nic.mac1609_4 	TotalLostPackets 	0
scalar IntersectionExampleScenario.node[538].nic.mac1609_4 	DroppedPacketsInMac 	0
scalar IntersectionExampleScenario.node[538].nic.mac1609_4 	TooLittleTime 	0
scalar IntersectionExampleScenario.node[538].nic.mac1609_4 	TimesIntoBackoff 	0
scalar IntersectionExampleScenario.node[538].nic.mac1609_4 	SlotsBackoff 	0
scalar IntersectionExampleScenario.node[538].nic.mac1609_4 	NumInternalContention 	0
scalar IntersectionExampleScenario.node[538].nic.mac1609_4 	totalBusyTime 	0
scalar IntersectionExampleScenario.node[538].veinsmobility 	startTime 	1754
scalar IntersectionExampleScenario.node[538].veinsmobility 	totalTime 	46
scalar IntersectionExampleScenario.node[538].veinsmobility 	stopTime 	1800
scalar IntersectionExampleScenario.node[538].veinsmobility 	minSpeed 	0
scalar IntersectionExampleScenario.node[538].veinsmobility 	maxSpeed 	16.676643371582
scalar IntersectionExampleScenario.node[538].veinsmobility 	totalDistance 	287.42188262939
scalar IntersectionExampleScenario.node[538].veinsmobility 	totalCO2Emission 	110.21590967295
scalar IntersectionExampleScenario.node[539].appl 	VehicleRemoved 	0
scalar IntersectionExampleScenario.node[539].appl 	ArrivedAtDest 	0
scalar IntersectionExampleScenario.node[539].appl 	IntersectionEnterTime 	1756.25
scalar IntersectionExampleScenario.node[539].appl 	IntersectionExitTime 	-1
scalar IntersectionExampleScenario.node[539].appl 	NumberOfCollisions 	0
scalar IntersectionExampleScenario.node[539].nic.phy80211p 	busyTime 	0
scalar IntersectionExampleScenario.node[539].nic.mac1609_4 	ReceivedUnicastPackets 	0
scalar IntersectionExampleScenario.node[539].nic.mac1609_4 	ReceivedBroadcasts 	0
scalar IntersectionExampleScenario.node[539].nic.mac1609_4 	SentPackets 	0
scalar IntersectionExampleScenario.node[539].nic.mac1609_4 	SNIRLostPackets 	0
scalar IntersectionExampleScenario.node[539].nic.mac1609_4 	RXTXLostPackets 	0
scalar IntersectionExampleScenario.node[539].nic.mac1609_4 	TotalLostPackets 	0
scalar IntersectionExampleScenario.node[539].nic.mac1609_4 	DroppedPacketsInMac 	0
scalar IntersectionExampleScenario.node[539].nic.mac1609_4 	TooLittleTime 	0
scalar IntersectionExampleScenario.node[539].nic.mac1609_4 	TimesIntoBackoff 	0
scalar IntersectionExampleScenario.node[539].nic.mac1609_4 	SlotsBackoff 	0
scalar IntersectionExampleScenario.node[539].nic.mac1609_4 	NumInternalContention 	0
scalar IntersectionExampleScenario.node[539].nic.mac1609_4 	totalBusyTime 	0
scalar IntersectionExampleScenario.node[539].veinsmobility 	startTime 	1756.25
scalar IntersectionExampleScenario.node[539].veinsmobility 	totalTime 	43.75
scalar IntersectionExampleScenario.node[539].veinsmobility 	stopTime 	1800
scalar IntersectionExampleScenario.node[539].veinsmobility 	minSpeed 	0
scalar IntersectionExampleScenario.node[539].veinsmobility 	maxSpeed 	16.019969940186
scalar IntersectionExampleScenario.node[539].veinsmobility 	totalDistance 	297.85750579834
scalar IntersectionExampleScenario.node[539].veinsmobility 	totalCO2Emission 	96.705252512333
scalar IntersectionExampleScenario.node[541].appl 	VehicleRemoved 	0
scalar IntersectionExampleScenario.node[541].appl 	ArrivedAtDest 	0
scalar IntersectionExampleScenario.node[541].appl 	IntersectionEnterTime 	1764.75
scalar IntersectionExampleScenario.node[541].appl 	IntersectionExitTime 	1789.0350841925
scalar IntersectionExampleScenario.node[541].appl 	NumberOfCollisions 	0
scalar IntersectionExampleScenario.node[541].nic.phy80211p 	busyTime 	0
scalar IntersectionExampleScenario.node[541].nic.mac1609_4 	ReceivedUnicastPackets 	0
scalar IntersectionExampleScenario.node[541].nic.mac1609_4 	ReceivedBroadcasts 	0
scalar IntersectionExampleScenario.node[541].nic.mac1609_4 	SentPackets 	0
scalar IntersectionExampleScenario.node[541].nic.mac1609_4 	SNIRLostPackets 	0
scalar IntersectionExampleScenario.node[541].nic.mac1609_4 	RXTXLostPackets 	0
scalar IntersectionExampleScenario.node[541].nic.mac1609_4 	TotalLostPackets 	0
scalar IntersectionExampleScenario.node[541].nic.mac1609_4 	DroppedPacketsInMac 	0
scalar IntersectionExampleScenario.node[541].nic.mac1609_4 	TooLittleTime 	0
scalar IntersectionExampleScenario.node[541].nic.mac1609_4 	TimesIntoBackoff 	0
scalar IntersectionExampleScenario.node[541].nic.mac1609_4 	SlotsBackoff 	0
scalar IntersectionExampleScenario.node[541].nic.mac1609_4 	NumInternalContention 	0
scalar IntersectionExampleScenario.node[541].nic.mac1609_4 	totalBusyTime 	0
scalar IntersectionExampleScenario.node[541].veinsmobility 	startTime 	1764.75
scalar IntersectionExampleScenario.node[541].veinsmobility 	totalTime 	35.25
scalar IntersectionExampleScenario.node[541].veinsmobility 	stopTime 	1800
scalar IntersectionExampleScenario.node[541].veinsmobility 	minSpeed 	5.6500000953674
scalar IntersectionExampleScenario.node[541].veinsmobility 	maxSpeed 	15.25
scalar IntersectionExampleScenario.node[541].veinsmobility 	totalDistance 	456.0498454237
scalar IntersectionExampleScenario.node[541].veinsmobility 	totalCO2Emission 	113.71857990127
scalar IntersectionExampleScenario.node[542].appl 	VehicleRemoved 	0
scalar IntersectionExampleScenario.node[542].appl 	ArrivedAtDest 	0
scalar IntersectionExampleScenario.node[542].appl 	IntersectionEnterTime 	1776.75
scalar IntersectionExampleScenario.node[542].appl 	IntersectionExitTime 	-1
scalar IntersectionExampleScenario.node[542].appl 	NumberOfCollisions 	0
scalar IntersectionExampleScenario.node[542].nic.phy80211p 	busyTime 	0
scalar IntersectionExampleScenario.node[542].nic.mac1609_4 	ReceivedUnicastPackets 	0
scalar IntersectionExampleScenario.node[542].nic.mac1609_4 	ReceivedBroadcasts 	0
scalar IntersectionExampleScenario.node[542].nic.mac1609_4 	SentPackets 	0
scalar IntersectionExampleScenario.node[542].nic.mac1609_4 	SNIRLostPackets 	0
scalar IntersectionExampleScenario.node[542].nic.mac1609_4 	RXTXLostPackets 	0
scalar IntersectionExampleScenario.node[542].nic.mac1609_4 	TotalLostPackets 	0
scalar IntersectionExampleScenario.node[542].nic.mac1609_4 	DroppedPacketsInMac 	0
scalar IntersectionExampleScenario.node[542].nic.mac1609_4 	TooLittleTime 	0
scalar IntersectionExampleScenario.node[542].nic.mac1609_4 	TimesIntoBackoff 	0
scalar IntersectionExampleScenario.node[542].nic.mac1609_4 	SlotsBackoff 	0
scalar IntersectionExampleScenario.node[542].nic.mac1609_4 	NumInternalContention 	0
scalar IntersectionExampleScenario.node[542].nic.mac1609_4 	totalBusyTime 	0
scalar IntersectionExampleScenario.node[542].veinsmobility 	startTime 	1776.75
scalar IntersectionExampleScenario.node[542].veinsmobility 	totalTime 	23.25
scalar IntersectionExampleScenario.node[542].veinsmobility 	stopTime 	1800
scalar IntersectionExampleScenario.node[542].veinsmobility 	minSpeed 	0
scalar IntersectionExampleScenario.node[542].veinsmobility 	maxSpeed 	15.02499961853
scalar IntersectionExampleScenario.node[542].veinsmobility 	totalDistance 	287.42190551758
scalar IntersectionExampleScenario.node[542].veinsmobility 	totalCO2Emission 	65.178734411085
scalar IntersectionExampleScenario.node[543].appl 	VehicleRemoved 	0
scalar IntersectionExampleScenario.node[543].appl 	ArrivedAtDest 	0
scalar IntersectionExampleScenario.node[543].appl 	IntersectionEnterTime 	1780.75
scalar IntersectionExampleScenario.node[543].appl 	IntersectionExitTime 	-1
scalar IntersectionExampleScenario.node[543].appl 	NumberOfCollisions 	0
scalar IntersectionExampleScenario.node[543].nic.phy80211p 	busyTime 	0
scalar IntersectionExampleScenario.node[543].nic.mac1609_4 	ReceivedUnicastPackets 	0
scalar IntersectionExampleScenario.node[543].nic.mac1609_4 	ReceivedBroadcasts 	0
scalar IntersectionExampleScenario.node[543].nic.mac1609_4 	SentPackets 	0
scalar IntersectionExampleScenario.node[543].nic.mac1609_4 	SNIRLostPackets 	0
scalar IntersectionExampleScenario.node[543].nic.mac1609_4 	RXTXLostPackets 	0
scalar IntersectionExampleScenario.node[543].nic.mac1609_4 	TotalLostPackets 	0
scalar IntersectionExampleScenario.node[543].nic.mac1609_4 	DroppedPacketsInMac 	0
scalar IntersectionExampleScenario.node[543].nic.mac1609_4 	TooLittleTime 	0
scalar IntersectionExampleScenario.node[543].nic.mac1609_4 	TimesIntoBackoff 	0
scalar IntersectionExampleScenario.node[543].nic.mac1609_4 	SlotsBackoff 	0
scalar IntersectionExampleScenario.node[543].nic.mac1609_4 	NumInternalContention 	0
scalar IntersectionExampleScenario.node[543].nic.mac1609_4 	totalBusyTime 	0
scalar IntersectionExampleScenario.node[543].veinsmobility 	startTime 	1780.75
scalar IntersectionExampleScenario.node[543].veinsmobility 	totalTime 	19.25
scalar IntersectionExampleScenario.node[543].veinsmobility 	stopTime 	1800
scalar IntersectionExampleScenario.node[543].veinsmobility 	minSpeed 	5.6500000953674
scalar IntersectionExampleScenario.node[543].veinsmobility 	maxSpeed 	16.014209747314
scalar IntersectionExampleScenario.node[543].veinsmobility 	totalDistance 	271.92901611328
scalar IntersectionExampleScenario.node[543].veinsmobility 	totalCO2Emission 	63.915158097834
scalar IntersectionExampleScenario.node[544].appl 	VehicleRemoved 	0
scalar IntersectionExampleScenario.node[544].appl 	ArrivedAtDest 	0
scalar IntersectionExampleScenario.node[544].appl 	IntersectionEnterTime 	1783
scalar IntersectionExampleScenario.node[544].appl 	IntersectionExitTime 	-1
scalar IntersectionExampleScenario.node[544].appl 	NumberOfCollisions 	0
scalar IntersectionExampleScenario.node[544].nic.phy80211p 	busyTime 	0
scalar IntersectionExampleScenario.node[544].nic.mac1609_4 	ReceivedUnicastPackets 	0
scalar IntersectionExampleScenario.node[544].nic.mac1609_4 	ReceivedBroadcasts 	0
scalar IntersectionExampleScenario.node[544].nic.mac1609_4 	SentPackets 	0
scalar IntersectionExampleScenario.node[544].nic.mac1609_4 	SNIRLostPackets 	0
scalar IntersectionExampleScenario.node[544].nic.mac1609_4 	RXTXLostPackets 	0
scalar IntersectionExampleScenario.node[544].nic.mac1609_4 	TotalLostPackets 	0
scalar IntersectionExampleScenario.node[544].nic.mac1609_4 	DroppedPacketsInMac 	0
scalar IntersectionExampleScenario.node[544].nic.mac1609_4 	TooLittleTime 	0
scalar IntersectionExampleScenario.node[544].nic.mac1609_4 	TimesIntoBackoff 	0
scalar IntersectionExampleScenario.node[544].nic.mac1609_4 	SlotsBackoff 	0
scalar IntersectionExampleScenario.node[544].nic.mac1609_4 	NumInternalContention 	0
scalar IntersectionExampleScenario.node[544].nic.mac1609_4 	totalBusyTime 	0
scalar IntersectionExampleScenario.node[544].veinsmobility 	startTime 	1783
scalar IntersectionExampleScenario.node[544].veinsmobility 	totalTime 	17
scalar IntersectionExampleScenario.node[544].veinsmobility 	stopTime 	1800
scalar IntersectionExampleScenario.node[544].veinsmobility 	minSpeed 	5.6500000953674
scalar IntersectionExampleScenario.node[544].veinsmobility 	maxSpeed 	15.02499961853
scalar IntersectionExampleScenario.node[544].veinsmobility 	totalDistance 	224.58560943604
scalar IntersectionExampleScenario.node[544].veinsmobility 	totalCO2Emission 	54.43564850157
scalar IntersectionExampleScenario.node[545].appl 	VehicleRemoved 	0
scalar IntersectionExampleScenario.node[545].appl 	ArrivedAtDest 	0
scalar IntersectionExampleScenario.node[545].appl 	IntersectionEnterTime 	1787
scalar IntersectionExampleScenario.node[545].appl 	IntersectionExitTime 	-1
scalar IntersectionExampleScenario.node[545].appl 	NumberOfCollisions 	0
scalar IntersectionExampleScenario.node[545].nic.phy80211p 	busyTime 	0
scalar IntersectionExampleScenario.node[545].nic.mac1609_4 	ReceivedUnicastPackets 	0
scalar IntersectionExampleScenario.node[545].nic.mac1609_4 	ReceivedBroadcasts 	0
scalar IntersectionExampleScenario.node[545].nic.mac1609_4 	SentPackets 	0
scalar IntersectionExampleScenario.node[545].nic.mac1609_4 	SNIRLostPackets 	0
scalar IntersectionExampleScenario.node[545].nic.mac1609_4 	RXTXLostPackets 	0
scalar IntersectionExampleScenario.node[545].nic.mac1609_4 	TotalLostPackets 	0
scalar IntersectionExampleScenario.node[545].nic.mac1609_4 	DroppedPacketsInMac 	0
scalar IntersectionExampleScenario.node[545].nic.mac1609_4 	TooLittleTime 	0
scalar IntersectionExampleScenario.node[545].nic.mac1609_4 	TimesIntoBackoff 	0
scalar IntersectionExampleScenario.node[545].nic.mac1609_4 	SlotsBackoff 	0
scalar IntersectionExampleScenario.node[545].nic.mac1609_4 	NumInternalContention 	0
scalar IntersectionExampleScenario.node[545].nic.mac1609_4 	totalBusyTime 	0
scalar IntersectionExampleScenario.node[545].veinsmobility 	startTime 	1787
scalar IntersectionExampleScenario.node[545].veinsmobility 	totalTime 	13
scalar IntersectionExampleScenario.node[545].veinsmobility 	stopTime 	1800
scalar IntersectionExampleScenario.node[545].veinsmobility 	minSpeed 	5.6500000953674
scalar IntersectionExampleScenario.node[545].veinsmobility 	maxSpeed 	16.420866012573
scalar IntersectionExampleScenario.node[545].veinsmobility 	totalDistance 	184.02569580078
scalar IntersectionExampleScenario.node[545].veinsmobility 	totalCO2Emission 	53.614216096793
scalar IntersectionExampleScenario.node[546].appl 	VehicleRemoved 	0
scalar IntersectionExampleScenario.node[546].appl 	ArrivedAtDest 	0
scalar IntersectionExampleScenario.node[546].appl 	IntersectionEnterTime 	1790.5
scalar IntersectionExampleScenario.node[546].appl 	IntersectionExitTime 	-1
scalar IntersectionExampleScenario.node[546].appl 	NumberOfCollisions 	0
scalar IntersectionExampleScenario.node[546].nic.phy80211p 	busyTime 	0
scalar IntersectionExampleScenario.node[546].nic.mac1609_4 	ReceivedUnicastPackets 	0
scalar IntersectionExampleScenario.node[546].nic.mac1609_4 	ReceivedBroadcasts 	0
scalar IntersectionExampleScenario.node[546].nic.mac1609_4 	SentPackets 	0
scalar IntersectionExampleScenario.node[546].nic.mac1609_4 	SNIRLostPackets 	0
scalar IntersectionExampleScenario.node[546].nic.mac1609_4 	RXTXLostPackets 	0
scalar IntersectionExampleScenario.node[546].nic.mac1609_4 	TotalLostPackets 	0
scalar IntersectionExampleScenario.node[546].nic.mac1609_4 	DroppedPacketsInMac 	0
scalar IntersectionExampleScenario.node[546].nic.mac1609_4 	TooLittleTime 	0
scalar IntersectionExampleScenario.node[546].nic.mac1609_4 	TimesIntoBackoff 	0
scalar IntersectionExampleScenario.node[546].nic.mac1609_4 	SlotsBackoff 	0
scalar IntersectionExampleScenario.node[546].nic.mac1609_4 	NumInternalContention 	0
scalar IntersectionExampleScenario.node[546].nic.mac1609_4 	totalBusyTime 	0
scalar IntersectionExampleScenario.node[546].veinsmobility 	startTime 	1790.5
scalar IntersectionExampleScenario.node[546].veinsmobility 	totalTime 	9.5
scalar IntersectionExampleScenario.node[546].veinsmobility 	stopTime 	1800
scalar IntersectionExampleScenario.node[546].veinsmobility 	minSpeed 	5.6500000953674
scalar IntersectionExampleScenario.node[546].veinsmobility 	maxSpeed 	15.64999961853
scalar IntersectionExampleScenario.node[546].veinsmobility 	totalDistance 	125.388671875
scalar IntersectionExampleScenario.node[546].veinsmobility 	totalCO2Emission 	44.530805026668
scalar IntersectionExampleScenario.node[547].appl 	VehicleRemoved 	0
scalar IntersectionExampleScenario.node[547].appl 	ArrivedAtDest 	0
scalar IntersectionExampleScenario.node[547].appl 	IntersectionEnterTime 	1794.5
scalar IntersectionExampleScenario.node[547].appl 	IntersectionExitTime 	-1
scalar IntersectionExampleScenario.node[547].appl 	NumberOfCollisions 	0
scalar IntersectionExampleScenario.node[547].nic.phy80211p 	busyTime 	0
scalar IntersectionExampleScenario.node[547].nic.mac1609_4 	ReceivedUnicastPackets 	0
scalar IntersectionExampleScenario.node[547].nic.mac1609_4 	ReceivedBroadcasts 	0
scalar IntersectionExampleScenario.node[547].nic.mac1609_4 	SentPackets 	0
scalar IntersectionExampleScenario.node[547].nic.mac1609_4 	SNIRLostPackets 	0
scalar IntersectionExampleScenario.node[547].nic.mac1609_4 	RXTXLostPackets 	0
scalar IntersectionExampleScenario.node[547].nic.mac1609_4 	TotalLostPackets 	0
scalar IntersectionExampleScenario.node[547].nic.mac1609_4 	DroppedPacketsInMac 	0
scalar IntersectionExampleScenario.node[547].nic.mac1609_4 	TooLittleTime 	0
scalar IntersectionExampleScenario.node[547].nic.mac1609_4 	TimesIntoBackoff 	0
scalar IntersectionExampleScenario.node[547].nic.mac1609_4 	SlotsBackoff 	0
scalar IntersectionExampleScenario.node[547].nic.mac1609_4 	NumInternalContention 	0
scalar IntersectionExampleScenario.node[547].nic.mac1609_4 	totalBusyTime 	0
scalar IntersectionExampleScenario.node[547].veinsmobility 	startTime 	1794.5
scalar IntersectionExampleScenario.node[547].veinsmobility 	totalTime 	5.5
scalar IntersectionExampleScenario.node[547].veinsmobility 	stopTime 	1800
scalar IntersectionExampleScenario.node[547].veinsmobility 	minSpeed 	5.6500000953674
scalar IntersectionExampleScenario.node[547].veinsmobility 	maxSpeed 	16.27499961853
scalar IntersectionExampleScenario.node[547].veinsmobility 	totalDistance 	64.018104553223
scalar IntersectionExampleScenario.node[547].veinsmobility 	totalCO2Emission 	37.614605595167
