file 18734800 1591415845                                        
version 2
run nodebug-4-20200605-23:54:12-5072
attr configname nodebug
attr datetime 20200605-23:54:12
attr experiment nodebug
attr inifile omnetpp.ini
attr iterationvars ""
attr iterationvars2 $repetition=4
attr measurement ""
attr network "\"org.car2x.veins.modules.application.ExtTraCIScenarioManagerLaunchd.IntersectionExampleScenario\""
attr processid 5072
attr repetition 4
attr replication #4
attr resultdir results
attr runnumber 4
attr seedset 4
param **.coreDebug false
param **.debug false
param *.**.nic.mac1609_4.bitrate 18Mbps
param *.**.nic.mac1609_4.txPower 20mW
param *.**.nic.mac1609_4.useServiceChannel false
param *.**.nic.phy80211p.analogueModels "xmldoc(\"config.xml\")"
param *.**.nic.phy80211p.decider "xmldoc(\"config.xml\")"
param *.**.nic.phy80211p.sensitivity -89dBm
param *.**.nic.phy80211p.thermalNoise -110dBm
param *.**.nic.phy80211p.usePropagationDelay true
param *.**.nic.phy80211p.useThermalNoise true
param *.annotations.draw false
param *.connectionManager.alpha 2.0
param *.connectionManager.carrierFrequency "5.890e9 Hz"
param *.connectionManager.pMax 20mW
param *.connectionManager.sat -89dBm
param *.connectionManager.sendDirect true
param *.manager.autoShutdown true
param *.manager.host "\"localhost\""
param *.manager.launchConfig "xmldoc(\"paramics.launchd.xml\")"
param *.manager.margin 25
param *.manager.moduleDisplayString "\"\""
param *.manager.moduleName "\"node\""
param *.manager.moduleType "\"org.car2x.veins.nodes.Car\""
param *.manager.port 9999
param *.manager.updateInterval 250ms
param *.node[*0].veinsmobility.accidentCount 0
param *.node[*0].veinsmobility.accidentDuration 30s
param *.node[*0].veinsmobility.accidentStart 75s
param *.node[*].appl.LiderSelectZoneRadio 55.0
param *.node[*].appl.ShareDataZoneRadio 110.0
param *.node[*].appl.TiempoSemaforo 30.0
param *.node[*].appl.beaconInterval 1s
param *.node[*].appl.beaconPriority 3
param *.node[*].appl.dataOnSch false
param *.node[*].appl.dataPriority 2
param *.node[*].appl.debug false
param *.node[*].appl.headerLength "256 bit"
param *.node[*].appl.maxOffset 0.005s
param *.node[*].appl.sendBeacons false
param *.node[*].appl.sendData true
param *.node[*].applType "\"Dummy\""
param *.node[*].mobilityType "\"TraCIMobility\""
param *.node[*].mobilityType.debug true
param *.node[*].veinsmobility.x 0
param *.node[*].veinsmobility.y 0
param *.node[*].veinsmobility.z 1.895
param *.node[*].veinsmobilityType "\"org.car2x.veins.modules.mobility.traci.TraCIMobility\""
param *.node[*].veinsmobilityType.debug true
param *.playgroundSizeX 8500m
param *.playgroundSizeY 8500m
param *.playgroundSizeZ 50m
param *.world.use2D false
param *.world.useTorus false

vector 3725  IntersectionExampleScenario.manager  vehiclesinsim  ETV
attr type  int
vector 3726  IntersectionExampleScenario.manager  realtime  ETV
attr type  int
attr unit  s
vector 3729  IntersectionExampleScenario.node[0].veinsmobility  posx  ETV
vector 3730  IntersectionExampleScenario.node[0].veinsmobility  posy  ETV
vector 3731  IntersectionExampleScenario.node[0].veinsmobility  speed  ETV
vector 3732  IntersectionExampleScenario.node[0].veinsmobility  acceleration  ETV
vector 3733  IntersectionExampleScenario.node[0].veinsmobility  co2emission  ETV
vector 3736  IntersectionExampleScenario.node[1].veinsmobility  posx  ETV
vector 3737  IntersectionExampleScenario.node[1].veinsmobility  posy  ETV
vector 3738  IntersectionExampleScenario.node[1].veinsmobility  speed  ETV
vector 3739  IntersectionExampleScenario.node[1].veinsmobility  acceleration  ETV
vector 3740  IntersectionExampleScenario.node[1].veinsmobility  co2emission  ETV
vector 3743  IntersectionExampleScenario.node[2].veinsmobility  posx  ETV
vector 3744  IntersectionExampleScenario.node[2].veinsmobility  posy  ETV
vector 3750  IntersectionExampleScenario.node[3].veinsmobility  posx  ETV
vector 3751  IntersectionExampleScenario.node[3].veinsmobility  posy  ETV
vector 3745  IntersectionExampleScenario.node[2].veinsmobility  speed  ETV
vector 3746  IntersectionExampleScenario.node[2].veinsmobility  acceleration  ETV
vector 3747  IntersectionExampleScenario.node[2].veinsmobility  co2emission  ETV
vector 3752  IntersectionExampleScenario.node[3].veinsmobility  speed  ETV
vector 3753  IntersectionExampleScenario.node[3].veinsmobility  acceleration  ETV
vector 3754  IntersectionExampleScenario.node[3].veinsmobility  co2emission  ETV
vector 3757  IntersectionExampleScenario.node[4].veinsmobility  posx  ETV
vector 3758  IntersectionExampleScenario.node[4].veinsmobility  posy  ETV
vector 3759  IntersectionExampleScenario.node[4].veinsmobility  speed  ETV
vector 3760  IntersectionExampleScenario.node[4].veinsmobility  acceleration  ETV
vector 3761  IntersectionExampleScenario.node[4].veinsmobility  co2emission  ETV
vector 3764  IntersectionExampleScenario.node[5].veinsmobility  posx  ETV
vector 3765  IntersectionExampleScenario.node[5].veinsmobility  posy  ETV
vector 3766  IntersectionExampleScenario.node[5].veinsmobility  speed  ETV
vector 3767  IntersectionExampleScenario.node[5].veinsmobility  acceleration  ETV
vector 3768  IntersectionExampleScenario.node[5].veinsmobility  co2emission  ETV
vector 3771  IntersectionExampleScenario.node[6].veinsmobility  posx  ETV
vector 3772  IntersectionExampleScenario.node[6].veinsmobility  posy  ETV
vector 3773  IntersectionExampleScenario.node[6].veinsmobility  speed  ETV
vector 3774  IntersectionExampleScenario.node[6].veinsmobility  acceleration  ETV
vector 3775  IntersectionExampleScenario.node[6].veinsmobility  co2emission  ETV
vector 3778  IntersectionExampleScenario.node[7].veinsmobility  posx  ETV
vector 3779  IntersectionExampleScenario.node[7].veinsmobility  posy  ETV
vector 3780  IntersectionExampleScenario.node[7].veinsmobility  speed  ETV
vector 3781  IntersectionExampleScenario.node[7].veinsmobility  acceleration  ETV
vector 3782  IntersectionExampleScenario.node[7].veinsmobility  co2emission  ETV
vector 3785  IntersectionExampleScenario.node[8].veinsmobility  posx  ETV
vector 3786  IntersectionExampleScenario.node[8].veinsmobility  posy  ETV
vector 3787  IntersectionExampleScenario.node[8].veinsmobility  speed  ETV
vector 3788  IntersectionExampleScenario.node[8].veinsmobility  acceleration  ETV
vector 3789  IntersectionExampleScenario.node[8].veinsmobility  co2emission  ETV
vector 3792  IntersectionExampleScenario.node[9].veinsmobility  posx  ETV
vector 3793  IntersectionExampleScenario.node[9].veinsmobility  posy  ETV
vector 3794  IntersectionExampleScenario.node[9].veinsmobility  speed  ETV
vector 3795  IntersectionExampleScenario.node[9].veinsmobility  acceleration  ETV
vector 3796  IntersectionExampleScenario.node[9].veinsmobility  co2emission  ETV
vector 3799  IntersectionExampleScenario.node[10].veinsmobility  posx  ETV
vector 3800  IntersectionExampleScenario.node[10].veinsmobility  posy  ETV
vector 3801  IntersectionExampleScenario.node[10].veinsmobility  speed  ETV
vector 3802  IntersectionExampleScenario.node[10].veinsmobility  acceleration  ETV
vector 3803  IntersectionExampleScenario.node[10].veinsmobility  co2emission  ETV
vector 3806  IntersectionExampleScenario.node[11].veinsmobility  posx  ETV
vector 3807  IntersectionExampleScenario.node[11].veinsmobility  posy  ETV
vector 3808  IntersectionExampleScenario.node[11].veinsmobility  speed  ETV
vector 3809  IntersectionExampleScenario.node[11].veinsmobility  acceleration  ETV
vector 3810  IntersectionExampleScenario.node[11].veinsmobility  co2emission  ETV
3747	7628 4748 87 2562 9 47.25 154 0.973 11.648172402475 470.76336111104 2462.8829942015
3746	12376 4324 87 2562 9 47.25 154 -3.1964340209961 2.5 38.341367721558 191.50698189953
3745	16700 4653 78 2562 8.75 47.25 155 5.6500000953674 15.64999961853 2217.1332035065 32350.133301773
3744	21353 4912 71 2562 8.5 47.25 156 486.85000610352 486.85000610352 75948.600952148 36975576.837107
3743	26265 4893 71 2562 8.5 47.25 156 236.734375 785.82187652588 81337.366569519 46547903.090508
3754	31158 4791 96 2627 9.25 48.5 158 0.973 11.810082123732 509.98955174528 2862.2227432109
3753	35949 4555 96 2627 9.25 48.5 158 -3.8633232116699 2.5 39.020376205444 290.68591294712
3752	40504 4687 87 2627 9 48.5 159 5.6500000953674 15.875 2180.1505804062 31298.173476065
3751	45191 5035 78 2627 8.75 48.5 160 237.63616943359 483.14999389648 69255.709564209 30885148.212608
3750	50226 5015 78 2627 8.75 48.5 160 184.17810058594 483.16455078125 63567.950592041 26987591.558494
3733	55241 5376 29 2757 6 51 181 0.973 11.200708441096 528.3653390446 2619.6407697063
3732	60617 4894 29 2757 6 51 181 -7.2424693107605 4 35.455564498901 448.16378211868
3731	65511 5292 26 2757 5.75 51 182 0 15.02499961853 2181.8535255194 29453.276232969
3730	70803 5728 23 2757 5.5 51 183 486.63604736328 785.82187652588 103549.0825119 60452781.118294
3729	76531 5675 23 2757 5.5 51 183 235.55383300781 483.14999389648 79757.30078125 35777764.427903
vector 3813  IntersectionExampleScenario.node[12].veinsmobility  posx  ETV
vector 3814  IntersectionExampleScenario.node[12].veinsmobility  posy  ETV
vector 3815  IntersectionExampleScenario.node[12].veinsmobility  speed  ETV
vector 3816  IntersectionExampleScenario.node[12].veinsmobility  acceleration  ETV
vector 3817  IntersectionExampleScenario.node[12].veinsmobility  co2emission  ETV
3740	82602 5585 51 2891 7.5 53.5 185 0.973 11.200708441096 547.19748393186 2672.8910053872
3739	88187 5035 51 2891 7.5 53.5 185 -4.5 2.5 36.98334312439 434.69045491314
3738	93222 5576 46 2891 7.25 53.5 186 0.067314147949219 15.02499961853 2267.4679647684 30857.479052495
3737	98798 5870 41 2891 7 53.5 187 486.74420166016 806.11563110352 107290.98855591 63723025.596061
3736	104668 5883 41 2891 7 53.5 187 236.58477783203 483.14999389648 81958.547943115 36918766.341777
vector 3820  IntersectionExampleScenario.node[13].veinsmobility  posx  ETV
vector 3821  IntersectionExampleScenario.node[13].veinsmobility  posy  ETV
3761	110703 5172 172 2906 11.25 53.75 171 0.973 11.54047740176 547.66888797054 2864.887177411
3760	115875 4846 172 2906 11.25 53.75 171 -4.5 2.5 39.869146347046 315.48764941542
3759	120721 5242 161 2906 11 53.75 172 5.6500000953674 15.662342071533 2283.9594449997 32166.523751633
3758	125963 5458 150 2906 10.75 53.75 173 237.88195800781 803.92970275879 91893.569869995 53271991.735553
3757	131421 5476 150 2906 10.75 53.75 173 483.14999389648 483.14999389648 83584.948944092 40384067.572176
vector 3822  IntersectionExampleScenario.node[13].veinsmobility  speed  ETV
vector 3823  IntersectionExampleScenario.node[13].veinsmobility  acceleration  ETV
vector 3824  IntersectionExampleScenario.node[13].veinsmobility  co2emission  ETV
vector 3827  IntersectionExampleScenario.node[14].veinsmobility  posx  ETV
vector 3828  IntersectionExampleScenario.node[14].veinsmobility  posy  ETV
vector 3829  IntersectionExampleScenario.node[14].veinsmobility  speed  ETV
vector 3830  IntersectionExampleScenario.node[14].veinsmobility  acceleration  ETV
vector 3831  IntersectionExampleScenario.node[14].veinsmobility  co2emission  ETV
vector 3834  IntersectionExampleScenario.node[15].veinsmobility  posx  ETV
vector 3835  IntersectionExampleScenario.node[15].veinsmobility  posy  ETV
vector 3836  IntersectionExampleScenario.node[15].veinsmobility  speed  ETV
vector 3837  IntersectionExampleScenario.node[15].veinsmobility  acceleration  ETV
vector 3838  IntersectionExampleScenario.node[15].veinsmobility  co2emission  ETV
vector 3841  IntersectionExampleScenario.node[16].veinsmobility  posx  ETV
vector 3842  IntersectionExampleScenario.node[16].veinsmobility  posy  ETV
vector 3843  IntersectionExampleScenario.node[16].veinsmobility  speed  ETV
vector 3848  IntersectionExampleScenario.node[17].veinsmobility  posx  ETV
vector 3849  IntersectionExampleScenario.node[17].veinsmobility  posy  ETV
vector 3844  IntersectionExampleScenario.node[16].veinsmobility  acceleration  ETV
vector 3845  IntersectionExampleScenario.node[16].veinsmobility  co2emission  ETV
vector 3850  IntersectionExampleScenario.node[17].veinsmobility  speed  ETV
vector 3851  IntersectionExampleScenario.node[17].veinsmobility  acceleration  ETV
vector 3852  IntersectionExampleScenario.node[17].veinsmobility  co2emission  ETV
3789	138725 4728 807 3531 23.5 61.75 154 0.973 12.099024792222 503.06032169341 2900.0431997035
3788	143453 4451 807 3531 23.5 61.75 154 -3.2763366699219 2.5 40.038900375366 253.89157132808
3787	147904 4653 788 3531 23.25 61.75 155 5.6500000953674 16.27499961853 2209.5417699814 32542.58226838
3786	152557 4959 769 3531 23 61.75 156 483.11978149414 785.82187652588 89236.883644104 52795406.812344
3785	157516 4969 769 3531 23 61.75 156 483.14999389648 733.59259033203 83589.823303223 45727610.559691
vector 3855  IntersectionExampleScenario.node[18].veinsmobility  posx  ETV
vector 3856  IntersectionExampleScenario.node[18].veinsmobility  posy  ETV
vector 3857  IntersectionExampleScenario.node[18].veinsmobility  speed  ETV
vector 3858  IntersectionExampleScenario.node[18].veinsmobility  acceleration  ETV
vector 3859  IntersectionExampleScenario.node[18].veinsmobility  co2emission  ETV
vector 3862  IntersectionExampleScenario.node[19].veinsmobility  posx  ETV
vector 3863  IntersectionExampleScenario.node[19].veinsmobility  posy  ETV
vector 3864  IntersectionExampleScenario.node[19].veinsmobility  speed  ETV
vector 3865  IntersectionExampleScenario.node[19].veinsmobility  acceleration  ETV
vector 3866  IntersectionExampleScenario.node[19].veinsmobility  co2emission  ETV
vector 3869  IntersectionExampleScenario.node[20].veinsmobility  posx  ETV
vector 3870  IntersectionExampleScenario.node[20].veinsmobility  posy  ETV
vector 3871  IntersectionExampleScenario.node[20].veinsmobility  speed  ETV
vector 3872  IntersectionExampleScenario.node[20].veinsmobility  acceleration  ETV
vector 3873  IntersectionExampleScenario.node[20].veinsmobility  co2emission  ETV
vector 3876  IntersectionExampleScenario.node[21].veinsmobility  posx  ETV
vector 3877  IntersectionExampleScenario.node[21].veinsmobility  posy  ETV
vector 3878  IntersectionExampleScenario.node[21].veinsmobility  speed  ETV
vector 3879  IntersectionExampleScenario.node[21].veinsmobility  acceleration  ETV
vector 3880  IntersectionExampleScenario.node[21].veinsmobility  co2emission  ETV
vector 3883  IntersectionExampleScenario.node[22].veinsmobility  posx  ETV
vector 3884  IntersectionExampleScenario.node[22].veinsmobility  posy  ETV
vector 3885  IntersectionExampleScenario.node[22].veinsmobility  speed  ETV
vector 3886  IntersectionExampleScenario.node[22].veinsmobility  acceleration  ETV
vector 3887  IntersectionExampleScenario.node[22].veinsmobility  co2emission  ETV
3768	164465 6945 440 5074 17.25 79.75 251 0.973 11.36141391502 601.84557977779 2811.9448129347
3767	171410 6624 440 5074 17.25 79.75 251 -7.9708242416382 4 36.134572982788 467.46402442043
3766	178034 6578 427 5074 17 79.75 252 0 15.25 2178.7544147968 29738.551102786
3765	184612 7995 414 5074 16.75 79.75 253 236.32275390625 483.14999389648 113732.82919312 52238414.8873
3764	192607 8027 414 5074 16.75 79.75 253 184.17810058594 483.36395263672 107053.16040039 47381982.658888
vector 3890  IntersectionExampleScenario.node[23].veinsmobility  posx  ETV
vector 3891  IntersectionExampleScenario.node[23].veinsmobility  posy  ETV
vector 3892  IntersectionExampleScenario.node[23].veinsmobility  speed  ETV
vector 3893  IntersectionExampleScenario.node[23].veinsmobility  acceleration  ETV
vector 3894  IntersectionExampleScenario.node[23].veinsmobility  co2emission  ETV
3775	201030 6735 652 5187 21.25 81 240 0.973 11.648172402475 633.64749190608 3105.7075871425
3774	207765 6474 652 5187 21.25 81 240 -7.2641291618347 4 40.082509994507 496.27677926288
3773	214239 6701 637 5187 21 81 241 0 15.74512386322 2193.9605086595 31246.381599067
3772	220940 7712 622 5187 20.75 81 242 236.72760009766 486.85000610352 109423.68307495 50587717.159228
3771	228652 7715 622 5187 20.75 81 242 482.94125366211 785.82187652588 132198.3884964 74273082.775559
3782	236367 7093 701 5210 22 81.25 238 0.973 11.200708441096 579.78737892278 2663.5131925931
3781	243460 7332 701 5210 22 81.25 238 -3.8345489501953 2.5000002384186 35.285810470581 364.62453111753
3780	250792 7399 684 5210 21.75 81.25 239 0 15.02499961853 2201.9919226402 29012.770512739
3779	258191 7654 667 5210 21.5 81.25 240 483.14999389648 732.36706542969 124726.30934143 65957180.512635
3778	265845 7630 667 5210 21.5 81.25 240 184.17810058594 486.86727905273 100434.69210815 44064737.519292
3803	273475 6451 1103 5233 27 81.5 219 0.973 11.990504229548 592.4960230886 3085.7340183154
3802	279926 6725 1103 5233 27 81.5 219 -3.6699922084808 2.5000019073486 39.529638290405 374.39029364032
3801	286651 6873 1080 5233 26.75 81.5 220 0 16.125 2215.1054259688 30769.783796546
3800	293524 7072 1057 5233 26.5 81.5 221 486.85000610352 486.85000610352 107593.85134888 52382067.185901
3799	300596 7033 1057 5233 26.5 81.5 221 236.95855712891 785.82187652588 114567.5945816 63486521.258532
3810	307629 5912 1620 5440 32.75 83.75 205 0.973 11.648172402475 574.81595324591 2965.2300818184
3809	313541 6081 1620 5440 32.75 83.75 205 -2.7148246765137 2.5 40.208654403687 317.10568624339
3808	319622 6320 1599 5440 32.5 83.75 206 1.1060991287231 15.729281425476 2211.8231709003 29178.474938944
3807	325942 6617 1578 5440 32.25 83.75 207 235.84509277344 486.85000610352 92536.474853516 42415476.7819
3806	332559 6613 1578 5440 32.25 83.75 207 483.14999389648 785.82187652588 116328.20381927 67222236.938982
vector 3897  IntersectionExampleScenario.node[24].veinsmobility  posx  ETV
vector 3898  IntersectionExampleScenario.node[24].veinsmobility  posy  ETV
vector 3899  IntersectionExampleScenario.node[24].veinsmobility  speed  ETV
3817	339401 4858 2891 6159 53.5 92.25 156 0.97223939240464 11.648172402475 494.25141160927 2666.9804512544
3816	344259 4431 2891 6159 53.5 92.25 156 -4.0875930786133 2.5 38.680875778198 244.34733797043
3815	348690 4741 2876 6159 53.25 92.25 157 5.6500000953674 15.64999961853 2203.0456104279 31845.332408475
3814	353431 5037 2861 6159 53 92.25 158 237.2265625 486.85000610352 68585.044555664 30718189.331998
3813	358468 5043 2861 6159 53 92.25 158 482.97650146484 785.82187652588 90415.236579895 53506588.345228
vector 3900  IntersectionExampleScenario.node[24].veinsmobility  acceleration  ETV
vector 3901  IntersectionExampleScenario.node[24].veinsmobility  co2emission  ETV
vector 3904  IntersectionExampleScenario.node[25].veinsmobility  posx  ETV
vector 3905  IntersectionExampleScenario.node[25].veinsmobility  posy  ETV
vector 3906  IntersectionExampleScenario.node[25].veinsmobility  speed  ETV
3796	363907 7811 868 6430 24.25 95.25 285 0.973 11.461529109343 659.769562097 2964.3270557754
3795	371718 6868 868 6430 24.25 95.25 285 -23.794773101807 4 38.171613693237 964.79707612837
3794	378586 7251 847 6430 24 95.25 286 0 15.389867782593 2291.5429944992 32484.99095349
3793	385837 9163 826 6430 23.75 95.25 287 483.14999389648 808.82032012939 156960.3866272 88496322.872646
3792	395000 9171 826 6430 23.75 95.25 287 483.14999389648 732.16635131836 147024.99052429 76462092.89883
vector 3907  IntersectionExampleScenario.node[25].veinsmobility  acceleration  ETV
vector 3908  IntersectionExampleScenario.node[25].veinsmobility  co2emission  ETV
vector 3911  IntersectionExampleScenario.node[26].veinsmobility  posx  ETV
vector 3912  IntersectionExampleScenario.node[26].veinsmobility  posy  ETV
vector 3913  IntersectionExampleScenario.node[26].veinsmobility  speed  ETV
vector 3914  IntersectionExampleScenario.node[26].veinsmobility  acceleration  ETV
vector 3915  IntersectionExampleScenario.node[26].veinsmobility  co2emission  ETV
3845	404734 4983 3406 6902 60.5 101 163 0.973 11.50573219951 523.71357308754 3011.8994131297
3844	409717 4761 3406 6902 60.5 101 163 -3.3866119384766 2.5 36.98334312439 308.86239427096
3843	414478 4932 3383 6902 60.25 101 164 5.6500000953674 15.451548576355 2185.6550111771 30361.981266526
3842	419410 5276 3360 6902 60 101 165 486.85000610352 785.82187652588 94424.985420227 55802425.530991
3841	424686 5238 3360 6902 60 101 165 236.35223388672 483.14999389648 71322.227355957 31779834.504868
vector 3918  IntersectionExampleScenario.node[27].veinsmobility  posx  ETV
vector 3919  IntersectionExampleScenario.node[27].veinsmobility  posy  ETV
vector 3920  IntersectionExampleScenario.node[27].veinsmobility  speed  ETV
vector 3921  IntersectionExampleScenario.node[27].veinsmobility  acceleration  ETV
vector 3922  IntersectionExampleScenario.node[27].veinsmobility  co2emission  ETV
vector 3925  IntersectionExampleScenario.node[28].veinsmobility  posx  ETV
vector 3926  IntersectionExampleScenario.node[28].veinsmobility  posy  ETV
vector 3927  IntersectionExampleScenario.node[28].veinsmobility  speed  ETV
vector 3928  IntersectionExampleScenario.node[28].veinsmobility  acceleration  ETV
vector 3929  IntersectionExampleScenario.node[28].veinsmobility  co2emission  ETV
vector 3932  IntersectionExampleScenario.node[29].veinsmobility  posx  ETV
vector 3933  IntersectionExampleScenario.node[29].veinsmobility  posy  ETV
vector 3934  IntersectionExampleScenario.node[29].veinsmobility  speed  ETV
vector 3935  IntersectionExampleScenario.node[29].veinsmobility  acceleration  ETV
vector 3936  IntersectionExampleScenario.node[29].veinsmobility  co2emission  ETV
vector 3939  IntersectionExampleScenario.node[30].veinsmobility  posx  ETV
vector 3940  IntersectionExampleScenario.node[30].veinsmobility  posy  ETV
vector 3941  IntersectionExampleScenario.node[30].veinsmobility  speed  ETV
vector 3942  IntersectionExampleScenario.node[30].veinsmobility  acceleration  ETV
vector 3943  IntersectionExampleScenario.node[30].veinsmobility  co2emission  ETV
vector 3946  IntersectionExampleScenario.node[31].veinsmobility  posx  ETV
vector 3947  IntersectionExampleScenario.node[31].veinsmobility  posy  ETV
vector 3948  IntersectionExampleScenario.node[31].veinsmobility  speed  ETV
vector 3949  IntersectionExampleScenario.node[31].veinsmobility  acceleration  ETV
vector 3950  IntersectionExampleScenario.node[31].veinsmobility  co2emission  ETV
3824	431904 6528 2940 7826 54.25 110.75 227 0.973 11.450879080643 585.41989850491 2815.451502247
3823	438432 6011 2940 7826 54.25 110.75 227 -9.2760667800903 4 36.643835067749 493.93958344813
3822	444443 6258 2923 7826 54 110.75 228 0 15.375 2208.5863375664 30503.035344753
3821	450701 7349 2906 7826 53.75 110.75 229 184.17810058594 486.85000610352 96054.055755615 42342456.016554
3820	458050 7372 2906 7826 53.75 110.75 229 235.26031494141 486.85000610352 102753.52786255 47238876.641458
3838	465422 6398 3296 7892 59.25 111.5 210 0.973 11.54047740176 564.30158650506 2787.7992859587
3837	471820 6388 3296 7892 59.25 111.5 210 -4.5 2.5000004768372 36.98334312439 427.56656136432
3836	478208 6622 3275 7892 59 111.5 211 0 15.5 2108.9989906671 28869.294613204
3835	484830 6798 3254 7892 58.75 111.5 212 208.90313720703 731.92227172852 97826.023590088 48793123.33644
3834	491628 6831 3254 7892 58.75 111.5 212 486.85000610352 486.85000610352 103212.20129395 50248860.829914
3831	498459 6673 3216 8039 58.25 113.25 221 0.973 12.26218747632 636.08692562494 3268.9203063828
3830	505132 6510 3216 8039 58.25 113.25 221 -4.5 2.5 42.415441513062 513.50957616512
3829	511642 6803 3197 8039 58 113.25 222 0 16.5 2201.7462078817 30614.178881219
3828	518445 7157 3178 8039 57.75 113.25 223 177.97814941406 483.14999389648 90891.581848145 39155013.194527
3827	525602 7187 3178 8039 57.75 113.25 223 486.85000610352 731.16653442383 116158.84994507 61476617.399871
3852	532789 6735 3456 8249 61 115.75 220 0.973 11.54047740176 594.44965741323 2889.8722419312
3851	539524 6603 3456 8249 61 115.75 220 -4.5 2.5 38.341367721558 431.07682969778
3850	546127 6901 3431 8249 60.75 115.75 221 0 15.5 2293.1485604793 31518.901950524
3849	553028 7141 3406 8249 60.5 115.75 222 165.20501708984 733.2819519043 98009.406860352 47853537.805505
3848	560169 7169 3406 8249 60.5 115.75 222 486.85000610352 486.85000610352 108080.70135498 52619090.114344
vector 3953  IntersectionExampleScenario.node[32].veinsmobility  posx  ETV
vector 3954  IntersectionExampleScenario.node[32].veinsmobility  posy  ETV
vector 3955  IntersectionExampleScenario.node[32].veinsmobility  speed  ETV
vector 3956  IntersectionExampleScenario.node[32].veinsmobility  acceleration  ETV
vector 3957  IntersectionExampleScenario.node[32].veinsmobility  co2emission  ETV
3887	567734 5743 4870 8969 77.5 124.5 189 0.973 11.36141391502 549.81376604097 2772.1896569632
3886	573477 5201 4870 8969 77.5 124.5 189 -7.3439340591431 4 37.32285118103 466.2801642023
3885	578678 5580 4847 8969 77.25 124.5 190 0 15.25 2179.0751368999 30203.864518701
3884	584258 6146 4824 8969 77 124.5 191 486.85000610352 733.68672180176 101339.17538452 54773304.880521
3883	590404 6199 4824 8969 77 124.5 191 486.63604736328 785.82187652588 107323.54317474 62190288.510313
3859	596603 6851 3892 9007 65.75 125 238 0.973 11.200708441096 589.50427713397 2725.1724827353
3858	603454 6155 3892 9007 65.75 125 238 -8.6544361114502 4 35.795072555542 478.35014899822
3857	609609 6572 3871 9007 65.5 125 239 0 15.02499961853 2218.0963418484 30381.505709367
3856	616181 7781 3850 9007 65.25 125 240 483.14999389648 483.14999389648 115955.99853516 56024139.984521
3855	623962 7759 3850 9007 65.25 125 240 184.17810058594 735.35032653809 109757.18598938 54533307.306567
3866	631721 7341 4030 9127 67.5 126.75 238 0.973 11.200708441096 607.85167377835 2717.3277422929
3865	639062 7178 4030 9127 67.5 126.75 238 -4.5 2.5 36.98334312439 424.35166655103
3864	646240 7552 4009 9127 67.25 126.75 239 0 15.02499961853 2289.7931982335 31194.762214576
3863	653792 7778 3988 9127 67 126.75 240 483.14999389648 735.06823730469 124691.99032593 65930245.043543
3862	661570 7763 3988 9127 67 126.75 240 164.94219970703 486.92495727539 99142.229522705 43338132.670454
3894	669333 5526 5141 9127 80.5 126.75 186 0.973 12.099024792222 557.37953393785 2967.2083307353
3893	674859 5613 5141 9127 80.5 126.75 186 -2.1568336486816 2.5000009536743 40.038900375366 306.28460679928
3892	680472 5905 5118 9127 80.25 126.75 187 2.3734519481659 16.27499961853 2224.0406749249 30293.770109072
3891	686377 6124 5095 9127 80 126.75 188 483.14999389648 483.14999389648 90832.198852539 43885576.321208
3890	692501 6078 5095 9127 80 126.75 188 184.17810058594 734.87059020996 84105.006591797 41734730.974352
vector 3960  IntersectionExampleScenario.node[33].veinsmobility  posx  ETV
vector 3961  IntersectionExampleScenario.node[33].veinsmobility  posy  ETV
vector 3962  IntersectionExampleScenario.node[33].veinsmobility  speed  ETV
vector 3963  IntersectionExampleScenario.node[33].veinsmobility  acceleration  ETV
vector 3964  IntersectionExampleScenario.node[33].veinsmobility  co2emission  ETV
vector 3967  IntersectionExampleScenario.node[34].veinsmobility  posx  ETV
vector 3968  IntersectionExampleScenario.node[34].veinsmobility  posy  ETV
vector 3969  IntersectionExampleScenario.node[34].veinsmobility  speed  ETV
vector 3970  IntersectionExampleScenario.node[34].veinsmobility  acceleration  ETV
vector 3971  IntersectionExampleScenario.node[34].veinsmobility  co2emission  ETV
vector 3974  IntersectionExampleScenario.node[35].veinsmobility  posx  ETV
vector 3975  IntersectionExampleScenario.node[35].veinsmobility  posy  ETV
vector 3976  IntersectionExampleScenario.node[35].veinsmobility  speed  ETV
vector 3977  IntersectionExampleScenario.node[35].veinsmobility  acceleration  ETV
vector 3978  IntersectionExampleScenario.node[35].veinsmobility  co2emission  ETV
3908	699767 5011 6452 9694 95.5 134.25 156 0.97223939240464 11.648172402475 492.14756265096 2642.1924718167
3907	704778 4474 6452 9694 95.5 134.25 156 -4.056884765625 2.5 38.680875778198 242.46451577521
3906	709252 4880 6430 9694 95.25 134.25 157 5.6500000953674 15.64999961853 2203.143330574 31848.467378614
3905	714132 5181 6407 9694 95 134.25 158 237.24237060547 486.85000610352 68585.992004395 30718851.140265
3904	719313 5187 6407 9694 95 134.25 158 482.97265625 785.82187652588 90413.027503967 53503927.483482
vector 3981  IntersectionExampleScenario.node[36].veinsmobility  posx  ETV
vector 3982  IntersectionExampleScenario.node[36].veinsmobility  posy  ETV
vector 3983  IntersectionExampleScenario.node[36].veinsmobility  speed  ETV
vector 3984  IntersectionExampleScenario.node[36].veinsmobility  acceleration  ETV
vector 3985  IntersectionExampleScenario.node[36].veinsmobility  co2emission  ETV
vector 3988  IntersectionExampleScenario.node[37].veinsmobility  posx  ETV
vector 3989  IntersectionExampleScenario.node[37].veinsmobility  posy  ETV
vector 3990  IntersectionExampleScenario.node[37].veinsmobility  speed  ETV
vector 3991  IntersectionExampleScenario.node[37].veinsmobility  acceleration  ETV
vector 3992  IntersectionExampleScenario.node[37].veinsmobility  co2emission  ETV
3915	725292 5241 6701 10032 98.5 138.75 162 0.973 11.200708441096 463.39157600888 2214.4052417768
3914	730533 4653 6701 10032 98.5 138.75 162 -3.3451309204102 2.5 35.964826583862 174.02114269178
3913	735186 5156 6680 10032 98.25 138.75 163 5.6500000953674 15.02499961853 2264.0245361328 31963.602543971
3912	740342 5406 6659 10032 98 138.75 164 486.85000610352 486.85000610352 79843.401000977 38871760.264651
3911	745748 5392 6659 10032 98 138.75 164 237.53424072266 798.59687805176 86461.499465942 50119079.744873
vector 3995  IntersectionExampleScenario.node[38].veinsmobility  posx  ETV
vector 3996  IntersectionExampleScenario.node[38].veinsmobility  posy  ETV
vector 3997  IntersectionExampleScenario.node[38].veinsmobility  speed  ETV
vector 3998  IntersectionExampleScenario.node[38].veinsmobility  acceleration  ETV
vector 3999  IntersectionExampleScenario.node[38].veinsmobility  co2emission  ETV
3873	751536 7807 4379 10264 72 141.5 279 0.973 11.648172402475 651.77672313358 3027.7237126184
3872	759343 7103 4379 10264 72 141.5 279 -7.3110303878784 4 38.850629806519 531.57119047327
3871	766446 7367 4358 10264 71.75 141.5 280 0 15.64999961853 2167.3303706646 30843.65739795
3870	773813 9166 4337 10264 71.5 141.5 281 486.58605957031 785.82187652588 151960.50676727 84290552.570721
3869	782979 9159 4337 10264 71.5 141.5 281 238.58685302734 483.14999389648 127751.46334839 59152982.47128
vector 4002  IntersectionExampleScenario.node[39].veinsmobility  posx  ETV
vector 4003  IntersectionExampleScenario.node[39].veinsmobility  posy  ETV
vector 4004  IntersectionExampleScenario.node[39].veinsmobility  speed  ETV
vector 4005  IntersectionExampleScenario.node[39].veinsmobility  acceleration  ETV
vector 4006  IntersectionExampleScenario.node[39].veinsmobility  co2emission  ETV
3880	792534 8504 4509 10518 73.5 144.75 286 0.973 11.648172402475 663.23578608911 3013.3537012611
3879	801038 8107 4509 10518 73.5 144.75 286 -4.5 2.5000009536743 38.171613693237 436.73690597671
3878	809145 8419 4486 10518 73.25 144.75 287 0 15.64999961853 2266.6804926833 31351.551170286
3877	817564 9399 4463 10518 73 144.75 288 486.85000610352 806.11563110352 158103.75228882 89249849.685303
3876	826963 9416 4463 10518 73 144.75 288 236.45184326172 483.14999389648 130905.8817749 60615691.363074
vector 4009  IntersectionExampleScenario.node[40].veinsmobility  posx  ETV
vector 4010  IntersectionExampleScenario.node[40].veinsmobility  posy  ETV
vector 4011  IntersectionExampleScenario.node[40].veinsmobility  speed  ETV
vector 4012  IntersectionExampleScenario.node[40].veinsmobility  acceleration  ETV
vector 4013  IntersectionExampleScenario.node[40].veinsmobility  co2emission  ETV
3901	836775 6548 6182 10692 92.5 146.75 218 0.973 11.648172402475 585.28903843893 2930.053080848
3900	843323 6859 6182 10692 92.5 146.75 218 -3.8626689910889 2.5 39.869146347046 325.70864154046
3899	850182 6909 6159 10692 92.25 146.75 219 0 15.665863990784 2191.268539492 29101.169801863
3898	857091 7248 6136 10692 92 146.75 220 486.85000610352 785.82187652588 122916.63185883 70529244.947307
3897	864339 7258 6136 10692 92 146.75 220 235.27081298828 483.14999389648 98183.675354004 44853096.296538
vector 4016  IntersectionExampleScenario.node[41].veinsmobility  posx  ETV
vector 4017  IntersectionExampleScenario.node[41].veinsmobility  posy  ETV
vector 4018  IntersectionExampleScenario.node[41].veinsmobility  speed  ETV
vector 4019  IntersectionExampleScenario.node[41].veinsmobility  acceleration  ETV
vector 4020  IntersectionExampleScenario.node[41].veinsmobility  co2emission  ETV
3950	871993 5466 7553 11159 108 151.5 175 0.973 10.756497587458 513.19069073216 2688.042541243
3949	877459 5207 7553 11159 108 151.5 175 -2.9022941589355 2.5 33.079023361206 276.98058971131
3948	882666 5561 7526 11159 107.75 151.5 176 5.6500000953674 14.39999961853 2185.8539237976 28102.158842785
3947	888227 5884 7498 11159 107.5 151.5 177 486.85000610352 785.82187652588 101115.56500244 59596643.960027
3946	894111 5888 7498 11159 107.5 151.5 177 236.07391357422 483.14999389648 76540.220611572 34119835.133346
3929	899999 6166 7125 11450 103.75 154.75 205 0.973 12.099024792222 598.84598469741 3257.7515601635
3928	906165 5773 7125 11450 103.75 154.75 205 -7.2880620956421 4 41.057416915894 494.45701285073
3927	911938 6008 7102 11450 103.5 154.75 206 0 16.27499961853 2218.9884870052 32605.990176648
3926	917946 6869 7079 11450 103.25 154.75 207 184.17810058594 734.86402893066 94060.486831665 46810079.382659
3925	924815 6899 7079 11450 103.25 154.75 207 486.85000610352 486.85000610352 100777.95126343 49063746.187699
3943	931714 6375 7417 11636 106.75 157.25 203 0.973 11.990504229548 585.31100470842 3091.9107391885
3942	938089 6415 7417 11636 106.75 157.25 203 -4.5 2.5000019073486 39.699392318726 433.71764027447
3941	944504 6641 7390 11636 106.5 157.25 204 0 16.125 2273.5730996616 32430.099243729
3940	951145 6787 7363 11636 106.25 157.25 205 171.40313720703 735.11141967773 91708.191268921 45444546.443509
3939	957932 6842 7363 11636 106.25 157.25 205 486.85000610352 486.85000610352 99804.251251221 48589700.330813
vector 4023  IntersectionExampleScenario.node[42].veinsmobility  posx  ETV
vector 4024  IntersectionExampleScenario.node[42].veinsmobility  posy  ETV
vector 4025  IntersectionExampleScenario.node[42].veinsmobility  speed  ETV
vector 4030  IntersectionExampleScenario.node[43].veinsmobility  posx  ETV
vector 4031  IntersectionExampleScenario.node[43].veinsmobility  posy  ETV
vector 4026  IntersectionExampleScenario.node[42].veinsmobility  acceleration  ETV
vector 4027  IntersectionExampleScenario.node[42].veinsmobility  co2emission  ETV
vector 4032  IntersectionExampleScenario.node[43].veinsmobility  speed  ETV
vector 4033  IntersectionExampleScenario.node[43].veinsmobility  acceleration  ETV
vector 4034  IntersectionExampleScenario.node[43].veinsmobility  co2emission  ETV
vector 4037  IntersectionExampleScenario.node[44].veinsmobility  posx  ETV
vector 4038  IntersectionExampleScenario.node[44].veinsmobility  posy  ETV
vector 4039  IntersectionExampleScenario.node[44].veinsmobility  speed  ETV
3922	965795 7698 7058 12367 103 169.25 266 0.973 11.810082123732 638.69119760667 3006.867086982
3921	973493 6935 7058 12367 103 169.25 266 -8.0913906097412 4 38.511121749878 487.67892771795
3920	980428 7241 7037 12367 102.75 169.25 267 0 15.875 2217.0468873978 31305.919573928
3919	987669 8895 7016 12367 102.5 169.25 268 486.85000610352 734.25172424316 138703.99534607 72887524.461706
3918	996564 8955 7016 12367 102.5 169.25 268 486.63604736328 794.69819641113 146304.01963806 82127920.215917
3936	1005519 7428 7313 12367 105.75 169.25 255 0.97223939240464 11.810082123732 626.22275159457 3081.3153033661
3935	1012947 6815 7313 12367 105.75 169.25 255 -7.1630792617798 4 38.680875778198 476.878071193
3934	1019762 7002 7288 12367 105.5 169.25 256 0 15.875 2184.2048661709 30861.617094532
3933	1026764 8536 7263 12367 105.25 169.25 257 235.25335693359 483.14999389648 115929.49777222 53388220.689169
3932	1035300 8579 7263 12367 105.25 169.25 257 184.17810058594 483.36395263672 109247.56866455 48505950.899545
vector 4040  IntersectionExampleScenario.node[44].veinsmobility  acceleration  ETV
vector 4041  IntersectionExampleScenario.node[44].veinsmobility  co2emission  ETV
3964	1044046 5590 9182 12509 127.5 171.75 178 0.973 11.810082123732 545.02481527744 3018.2784842827
3963	1049636 5611 9182 12509 127.5 171.75 178 -2.3065853118896 2.5 39.699392318726 304.06112850477
3962	1055247 5712 9163 12509 127.25 171.75 179 3.986599445343 15.875 2191.4031023979 29689.837075443
3961	1060959 6062 9144 12509 127 171.75 180 235.42572021484 483.14999389648 78854.808654785 35513548.493085
3960	1067021 6050 9144 12509 127 171.75 180 184.17810058594 483.17718505859 72352.100341797 30845980.2242
vector 4044  IntersectionExampleScenario.node[45].veinsmobility  posx  ETV
vector 4045  IntersectionExampleScenario.node[45].veinsmobility  posy  ETV
vector 4046  IntersectionExampleScenario.node[45].veinsmobility  speed  ETV
vector 4047  IntersectionExampleScenario.node[45].veinsmobility  acceleration  ETV
vector 4048  IntersectionExampleScenario.node[45].veinsmobility  co2emission  ETV
3971	1073467 5712 9259 12603 128.5 173.5 181 0.973 11.200708441096 550.36251864645 2840.5652141191
3970	1079179 5862 9259 12603 128.5 173.5 181 -2.6390419006348 2.5 37.32285118103 310.45328110074
3969	1085041 6129 9240 12603 128.25 173.5 182 5.0683517456055 15.079895019531 2216.5391402245 29137.345015972
3968	1091170 6165 9220 12603 128 173.5 183 235.02569580078 486.85000610352 80317.008056641 36287147.16973
3967	1097335 6173 9220 12603 128 173.5 183 483.14999389648 785.82187652588 103547.07891083 60448002.690763
3978	1103508 5652 9414 12642 130.5 174.25 176 0.973 11.648172402475 567.55608817775 3221.4571071615
3977	1109160 5457 9414 12642 130.5 174.25 176 -4.5 2.5 38.171613693237 387.89536047717
3976	1114617 5697 9394 12642 130.25 174.25 177 5.3195953369141 15.64999961853 2263.545542717 30785.32328833
3975	1120314 6012 9373 12642 130 174.25 178 483.14999389648 734.64776611328 94528.283966064 51220609.902673
3974	1126326 5989 9373 12642 130 174.25 178 171.40313720703 487.07217407227 70372.902008057 29810105.383202
vector 4051  IntersectionExampleScenario.node[46].veinsmobility  posx  ETV
vector 4052  IntersectionExampleScenario.node[46].veinsmobility  posy  ETV
vector 4053  IntersectionExampleScenario.node[46].veinsmobility  speed  ETV
vector 4054  IntersectionExampleScenario.node[46].veinsmobility  acceleration  ETV
vector 4055  IntersectionExampleScenario.node[46].veinsmobility  co2emission  ETV
3992	1132711 5348 9969 12880 138 178.25 162 0.973 11.36141391502 498.27315974489 2621.5351529549
3991	1138059 5097 9969 12880 138 178.25 162 -3.3174819946289 2.5 37.15309715271 268.07845741907
3990	1143156 5222 9948 12880 137.75 178.25 163 5.6500000953674 15.25 2186.3569602966 30579.819303636
3989	1148378 5566 9927 12880 137.5 178.25 164 486.85000610352 733.95365905762 88238.337051392 48424951.139724
3988	1153944 5567 9927 12880 137.5 178.25 164 486.85000610352 785.82187652588 93847.930931091 55467244.282693
3999	1159511 5327 10117 13001 139.75 180.25 163 0.973 11.456606225527 523.99185678067 2923.0086108848
3998	1164838 5167 10117 13001 139.75 180.25 163 -4.0104904174805 2.5 38.171613693237 279.06253825667
3997	1170005 5289 10096 13001 139.5 180.25 164 5.6500000953674 15.382995605469 2278.4957742691 32548.954874079
3996	1175294 5605 10074 13001 139.25 180.25 165 238.49853515625 486.85000610352 72009.252868652 32383346.488175
3995	1180899 5600 10074 13001 139.25 180.25 165 483.14410400391 805.05782318115 95662.076179504 57539141.776474
3957	1186499 7705 8481 13271 118.5 184.75 266 0.973 12.099024792222 659.16446861815 3243.5970419617
3956	1194204 7216 8481 13271 118.5 184.75 266 -7.5882558822632 4 41.057416915894 513.08869771056
3955	1201420 7284 8460 13271 118.25 184.75 267 0 16.27499961853 2216.6710078716 32646.396215312
3954	1208704 9015 8438 13271 118 184.75 268 235.58135986328 785.82187652588 137136.30821991 74247833.089139
3953	1217719 9030 8438 13271 118 184.75 268 483.14999389648 483.14999389648 129484.19836426 62560289.649382
vector 4058  IntersectionExampleScenario.node[47].veinsmobility  posx  ETV
vector 4059  IntersectionExampleScenario.node[47].veinsmobility  posy  ETV
vector 4060  IntersectionExampleScenario.node[47].veinsmobility  speed  ETV
3985	1226978 6112 9851 13341 136.5 186 199 0.973 12.099024792222 577.58149506524 3178.9285087222
3984	1233090 6248 9851 13341 136.5 186 199 -3.8329796791077 2.5000009536743 41.227170944214 357.60887784201
3983	1239338 6547 9832 13341 136.25 186 200 0 16.27499961853 2202.4845598377 30249.037436221
3982	1245885 6802 9813 13341 136 186 201 483.1272277832 785.82187652588 112601.83618927 64927882.438678
3981	1252687 6820 9813 13341 136 186 201 483.14999389648 731.88655090332 105079.69471741 55937061.677528
vector 4061  IntersectionExampleScenario.node[47].veinsmobility  acceleration  ETV
vector 4062  IntersectionExampleScenario.node[47].veinsmobility  co2emission  ETV
4006	1259674 5454 10497 13446 144.5 187.75 174 0.973 12.553400930962 570.62225440044 3402.2709980529
4005	1265128 5305 10497 13446 144.5 187.75 174 -2.2655868530273 2.5 43.773473739624 309.64953261985
4004	1270433 5647 10476 13446 144.25 187.75 175 4.8350019454956 16.89999961853 2204.0322213173 30589.450098813
4003	1276080 5969 10455 13446 144 187.75 176 483.1227722168 785.82187652588 100229.09069061 58817115.105419
4002	1282049 5972 10455 13446 144 187.75 176 483.14999389648 731.98362731934 92734.901763916 49797404.144289
vector 4065  IntersectionExampleScenario.node[48].veinsmobility  posx  ETV
vector 4066  IntersectionExampleScenario.node[48].veinsmobility  posy  ETV
vector 4067  IntersectionExampleScenario.node[48].veinsmobility  speed  ETV
vector 4068  IntersectionExampleScenario.node[48].veinsmobility  acceleration  ETV
vector 4069  IntersectionExampleScenario.node[48].veinsmobility  co2emission  ETV
vector 4072  IntersectionExampleScenario.node[49].veinsmobility  posx  ETV
vector 4073  IntersectionExampleScenario.node[49].veinsmobility  posy  ETV
vector 4074  IntersectionExampleScenario.node[49].veinsmobility  speed  ETV
vector 4075  IntersectionExampleScenario.node[49].veinsmobility  acceleration  ETV
vector 4076  IntersectionExampleScenario.node[49].veinsmobility  co2emission  ETV
vector 4079  IntersectionExampleScenario.node[50].veinsmobility  posx  ETV
vector 4080  IntersectionExampleScenario.node[50].veinsmobility  posy  ETV
vector 4081  IntersectionExampleScenario.node[50].veinsmobility  speed  ETV
vector 4082  IntersectionExampleScenario.node[50].veinsmobility  acceleration  ETV
vector 4083  IntersectionExampleScenario.node[50].veinsmobility  co2emission  ETV
4027	1289209 5064 11964 14210 162.75 200.75 153 0.973 11.648172402475 484.44782117777 2592.8500325516
4026	1294273 4685 11964 14210 162.75 200.75 153 -3.8884658813477 2.5 39.020376205444 209.84721793409
4025	1298958 4991 11949 14210 162.5 200.75 154 5.6500000953674 15.64999961853 2216.1038007736 32564.701998213
4024	1303949 5241 11934 14210 162.25 200.75 155 184.17810058594 732.82446289062 69465.200759888 35231603.478289
4023	1309190 5272 11934 14210 162.25 200.75 155 486.85000610352 486.85000610352 75461.750946045 36738553.908664
vector 4086  IntersectionExampleScenario.node[51].veinsmobility  posx  ETV
vector 4087  IntersectionExampleScenario.node[51].veinsmobility  posy  ETV
vector 4088  IntersectionExampleScenario.node[51].veinsmobility  speed  ETV
4041	1314691 4990 12383 14524 169.5 206.75 150 0.973 11.648172402475 487.44947118805 2563.5912754231
4040	1319681 4664 12383 14524 169.5 206.75 150 -3.3688430786133 2.5 40.887662887573 200.79517711461
4039	1324345 4904 12367 14524 169.25 206.75 151 5.6500000953674 15.942649841309 2222.8092184067 33499.876345577
4038	1329249 5139 12350 14524 169 206.75 152 184.17810058594 734.58322143555 68137.424285889 34598250.45196
4037	1334388 5168 12350 14524 169 206.75 152 486.85000610352 486.85000610352 74001.200927734 36027485.123335
vector 4089  IntersectionExampleScenario.node[51].veinsmobility  acceleration  ETV
vector 4090  IntersectionExampleScenario.node[51].veinsmobility  co2emission  ETV
vector 4093  IntersectionExampleScenario.node[52].veinsmobility  posx  ETV
vector 4094  IntersectionExampleScenario.node[52].veinsmobility  posy  ETV
vector 4095  IntersectionExampleScenario.node[52].veinsmobility  speed  ETV
vector 4096  IntersectionExampleScenario.node[52].veinsmobility  acceleration  ETV
vector 4097  IntersectionExampleScenario.node[52].veinsmobility  co2emission  ETV
vector 4100  IntersectionExampleScenario.node[53].veinsmobility  posx  ETV
vector 4101  IntersectionExampleScenario.node[53].veinsmobility  posy  ETV
4013	1340271 8057 10669 14941 146.5 214.25 272 0.97223939240464 11.648172402475 651.65410650811 3057.853861479
4012	1348328 6908 10669 14941 146.5 214.25 272 -38.780876159668 4 38.680875778198 1865.2117915951
4011	1355236 7455 10646 14941 146.25 214.25 273 0 15.64999961853 2215.5750312805 32133.462763726
4010	1362691 9315 10623 14941 146 214.25 274 483.14999389648 483.14999389648 132383.09832764 63960893.148995
4009	1372006 9285 10623 14941 146 214.25 274 184.17810058594 734.53523254395 125734.73219299 61883878.440683
vector 4102  IntersectionExampleScenario.node[53].veinsmobility  speed  ETV
4020	1381368 7846 10834 14957 148.25 214.5 266 0.973 11.450879080643 623.93683053602 2869.4054996469
4019	1389214 7403 10834 14957 148.25 214.5 266 -8.6620712280273 4 36.98334312439 481.28099357141
4018	1396617 7425 10809 14957 148 214.5 267 0 15.375 2196.3561348915 30471.925162217
4017	1404042 9110 10784 14957 147.75 214.5 268 237.87945556641 486.85000610352 121963.91271973 56647377.074129
4016	1413152 9098 10784 14957 147.75 214.5 268 483.14999389648 785.82187652588 145483.42809296 81113346.152484
vector 4103  IntersectionExampleScenario.node[53].veinsmobility  acceleration  ETV
vector 4104  IntersectionExampleScenario.node[53].veinsmobility  co2emission  ETV
vector 4107  IntersectionExampleScenario.node[54].veinsmobility  posx  ETV
vector 4108  IntersectionExampleScenario.node[54].veinsmobility  posy  ETV
vector 4109  IntersectionExampleScenario.node[54].veinsmobility  speed  ETV
4034	1422646 6643 11998 15070 163.25 216.5 214 0.973 11.00486315618 540.53004999719 2508.2450096165
4033	1429289 6825 11998 15070 163.25 216.5 214 -3.946576833725 2.5 34.267293930054 312.96634020547
4032	1436114 7089 11981 15070 163 216.5 215 0 14.75 2200.2629141323 27732.405364999
4031	1443203 7323 11964 15070 162.75 216.5 216 483.14999389648 732.49517822266 113283.4662323 60529825.951379
4030	1450526 7312 11964 15070 162.75 216.5 216 184.17810058594 487.02136230469 88720.702728271 38404347.370822
vector 4110  IntersectionExampleScenario.node[54].veinsmobility  acceleration  ETV
vector 4111  IntersectionExampleScenario.node[54].veinsmobility  co2emission  ETV
vector 4114  IntersectionExampleScenario.node[55].veinsmobility  posx  ETV
vector 4115  IntersectionExampleScenario.node[55].veinsmobility  posy  ETV
vector 4116  IntersectionExampleScenario.node[55].veinsmobility  speed  ETV
vector 4117  IntersectionExampleScenario.node[55].veinsmobility  acceleration  ETV
vector 4118  IntersectionExampleScenario.node[55].veinsmobility  co2emission  ETV
vector 4121  IntersectionExampleScenario.node[56].veinsmobility  posx  ETV
vector 4122  IntersectionExampleScenario.node[56].veinsmobility  posy  ETV
vector 4128  IntersectionExampleScenario.node[57].veinsmobility  posx  ETV
vector 4129  IntersectionExampleScenario.node[57].veinsmobility  posy  ETV
vector 4123  IntersectionExampleScenario.node[56].veinsmobility  speed  ETV
vector 4124  IntersectionExampleScenario.node[56].veinsmobility  acceleration  ETV
vector 4125  IntersectionExampleScenario.node[56].veinsmobility  co2emission  ETV
vector 4130  IntersectionExampleScenario.node[57].veinsmobility  speed  ETV
vector 4131  IntersectionExampleScenario.node[57].veinsmobility  acceleration  ETV
vector 4132  IntersectionExampleScenario.node[57].veinsmobility  co2emission  ETV
4062	1459193 5185 13356 15616 186.25 225.5 158 0.973 11.810082123732 507.99310620607 2855.6579505063
4061	1464378 4879 13356 15616 186.25 225.5 158 -3.4376373291016 2.5 38.850629806519 284.11405286263
4060	1469257 5086 13341 15616 186 225.5 159 5.6500000953674 15.875 2176.8192710876 31183.809667693
4059	1474343 5428 13326 15616 185.75 225.5 160 238.64453125 483.14999389648 69305.658294678 30920764.77396
4058	1479771 5412 13326 15616 185.75 225.5 160 184.17810058594 483.14999389648 63546.552520752 26970383.904858
vector 4135  IntersectionExampleScenario.node[58].veinsmobility  posx  ETV
vector 4136  IntersectionExampleScenario.node[58].veinsmobility  posy  ETV
vector 4137  IntersectionExampleScenario.node[58].veinsmobility  speed  ETV
vector 4138  IntersectionExampleScenario.node[58].veinsmobility  acceleration  ETV
vector 4139  IntersectionExampleScenario.node[58].veinsmobility  co2emission  ETV
vector 4142  IntersectionExampleScenario.node[59].veinsmobility  posx  ETV
vector 4143  IntersectionExampleScenario.node[59].veinsmobility  posy  ETV
vector 4144  IntersectionExampleScenario.node[59].veinsmobility  speed  ETV
4048	1485808 6875 12564 15932 172.75 229.75 229 0.973 12.099024792222 615.38557379842 3253.85122063
4047	1492683 6431 12564 15932 172.75 229.75 229 -7.8776445388794 4 40.038900375366 513.03881719338
4046	1499114 6622 12550 15932 172.5 229.75 230 0 16.27499961853 2205.5864975452 32071.414867027
4045	1505736 7830 12535 15932 172.25 229.75 231 238.29949951172 785.82187652588 118859.91831207 65212317.687721
4044	1513566 7856 12535 15932 172.25 229.75 231 483.14999389648 483.14999389648 111607.64859009 53923234.735102
vector 4145  IntersectionExampleScenario.node[59].veinsmobility  acceleration  ETV
vector 4146  IntersectionExampleScenario.node[59].veinsmobility  co2emission  ETV
vector 4149  IntersectionExampleScenario.node[60].veinsmobility  posx  ETV
vector 4150  IntersectionExampleScenario.node[60].veinsmobility  posy  ETV
vector 4151  IntersectionExampleScenario.node[60].veinsmobility  speed  ETV
vector 4152  IntersectionExampleScenario.node[60].veinsmobility  acceleration  ETV
vector 4153  IntersectionExampleScenario.node[60].veinsmobility  co2emission  ETV
4055	1521985 7309 12685 16096 175 231.75 228 0.973 11.450879080643 593.85021625267 2834.1976330011
4054	1529294 7046 12685 16096 175 231.75 228 -4.5 2.5 37.492597579956 410.1580295763
4053	1536340 7392 12670 16096 174.75 231.75 229 0 15.375 2271.392745032 31212.716092226
4052	1543732 7812 12655 16096 174.5 231.75 230 483.13604736328 802.70781707764 128440.44817352 74021356.330584
4051	1551544 7813 12655 16096 174.5 231.75 230 483.14999389648 732.63023376465 119604.75280762 63294771.862479
4076	1559357 5182 14033 16495 197.75 236.5 156 0.973 11.54047740176 464.77515916597 2352.2223977752
4075	1564539 5079 14033 16495 197.75 236.5 156 -3.0889358520508 2.5 37.32285118103 181.06025539345
4074	1569618 5099 14016 16495 197.5 236.5 157 5.6500000953674 15.5 2217.7521648407 31910.868040962
4073	1574717 5365 13999 16495 197.25 236.5 158 236.47521972656 785.82187652588 82319.58707428 47086713.962645
4072	1580082 5373 13999 16495 197.25 236.5 158 483.14999389648 483.14999389648 76337.699035645 36882558.823143
4083	1585455 5176 14086 16579 198.5 237.5 157 0.973 12.158532517572 513.22359346382 2705.755394548
4082	1590631 4937 14086 16579 198.5 237.5 157 -3.0304222106934 2.5 42.828535079956 200.56343578457
4081	1595568 5222 14069 16579 198.25 237.5 158 5.6500000953674 16.357133865356 2299.6533985138 34252.352749887
4080	1600790 5391 14050 16579 198 237.5 159 239.24444580078 808.82032012939 84949.070198059 49970623.978182
4079	1606181 5405 14050 16579 198 237.5 159 483.14999389648 483.14999389648 76820.849029541 37115992.739745
vector 4156  IntersectionExampleScenario.node[61].veinsmobility  posx  ETV
vector 4157  IntersectionExampleScenario.node[61].veinsmobility  posy  ETV
vector 4158  IntersectionExampleScenario.node[61].veinsmobility  speed  ETV
vector 4159  IntersectionExampleScenario.node[61].veinsmobility  acceleration  ETV
vector 4160  IntersectionExampleScenario.node[61].veinsmobility  co2emission  ETV
vector 4163  IntersectionExampleScenario.node[62].veinsmobility  posx  ETV
vector 4164  IntersectionExampleScenario.node[62].veinsmobility  posy  ETV
vector 4165  IntersectionExampleScenario.node[62].veinsmobility  speed  ETV
vector 4166  IntersectionExampleScenario.node[62].veinsmobility  acceleration  ETV
vector 4167  IntersectionExampleScenario.node[62].veinsmobility  co2emission  ETV
vector 4170  IntersectionExampleScenario.node[63].veinsmobility  posx  ETV
vector 4171  IntersectionExampleScenario.node[63].veinsmobility  posy  ETV
vector 4177  IntersectionExampleScenario.node[64].veinsmobility  posx  ETV
vector 4178  IntersectionExampleScenario.node[64].veinsmobility  posy  ETV
vector 4172  IntersectionExampleScenario.node[63].veinsmobility  speed  ETV
vector 4179  IntersectionExampleScenario.node[64].veinsmobility  speed  ETV
vector 4173  IntersectionExampleScenario.node[63].veinsmobility  acceleration  ETV
vector 4174  IntersectionExampleScenario.node[63].veinsmobility  co2emission  ETV
vector 4180  IntersectionExampleScenario.node[64].veinsmobility  acceleration  ETV
vector 4181  IntersectionExampleScenario.node[64].veinsmobility  co2emission  ETV
4069	1613170 6412 13804 17395 194 245.25 206 0.97223939240464 11.648172402475 580.18676922157 2972.503721937
4068	1619582 5839 13804 17395 194 245.25 206 -7.1630792617798 4 38.680875778198 475.21272998936
4067	1625421 6229 13789 17395 193.75 245.25 207 0 15.64999961853 2217.0011982918 31576.668155059
4066	1631650 7038 13774 17395 193.5 245.25 208 184.17810058594 734.53523254395 94551.172363281 47151389.028223
4065	1638688 7072 13774 17395 193.5 245.25 208 486.85000610352 486.85000610352 101264.80126953 49300769.116142
vector 4184  IntersectionExampleScenario.node[65].veinsmobility  posx  ETV
vector 4185  IntersectionExampleScenario.node[65].veinsmobility  posy  ETV
vector 4186  IntersectionExampleScenario.node[65].veinsmobility  speed  ETV
vector 4187  IntersectionExampleScenario.node[65].veinsmobility  acceleration  ETV
vector 4188  IntersectionExampleScenario.node[65].veinsmobility  co2emission  ETV
vector 4191  IntersectionExampleScenario.node[66].veinsmobility  posx  ETV
vector 4192  IntersectionExampleScenario.node[66].veinsmobility  posy  ETV
vector 4193  IntersectionExampleScenario.node[66].veinsmobility  speed  ETV
vector 4194  IntersectionExampleScenario.node[66].veinsmobility  acceleration  ETV
vector 4195  IntersectionExampleScenario.node[66].veinsmobility  co2emission  ETV
vector 4198  IntersectionExampleScenario.node[67].veinsmobility  posx  ETV
vector 4199  IntersectionExampleScenario.node[67].veinsmobility  posy  ETV
vector 4200  IntersectionExampleScenario.node[67].veinsmobility  speed  ETV
vector 4201  IntersectionExampleScenario.node[67].veinsmobility  acceleration  ETV
vector 4202  IntersectionExampleScenario.node[67].veinsmobility  co2emission  ETV
4090	1646948 6542 14539 18487 207 259.5 211 0.973 11.450879080643 573.31045311784 2814.9484195374
4089	1653490 5924 14539 18487 207 259.5 211 -7.3439340591431 4 37.32285118103 468.21975753043
4088	1659414 6331 14524 18487 206.75 259.5 212 0 15.375 2201.1615531445 30669.924930393
4087	1665745 7236 14509 18487 206.5 259.5 213 236.78112792969 486.85000610352 95158.057403564 43593590.62045
4086	1672981 7230 14509 18487 206.5 259.5 213 483.14999389648 785.82187652588 118035.52120209 67409900.398429
vector 4205  IntersectionExampleScenario.node[68].veinsmobility  posx  ETV
vector 4206  IntersectionExampleScenario.node[68].veinsmobility  posy  ETV
vector 4207  IntersectionExampleScenario.node[68].veinsmobility  speed  ETV
vector 4208  IntersectionExampleScenario.node[68].veinsmobility  acceleration  ETV
vector 4209  IntersectionExampleScenario.node[68].veinsmobility  co2emission  ETV
4097	1680607 5897 14911 18576 213.75 260.75 189 0.973 11.810082123732 553.79465915622 2914.0249289783
4096	1686504 6004 14911 18576 213.75 260.75 189 -2.818489074707 2.5 39.529638290405 322.97103823338
4095	1692508 6145 14896 18576 213.5 260.75 190 1.3654296398163 15.875 2189.2143595219 29768.332463796
4094	1698653 6489 14881 18576 213.25 260.75 191 486.85000610352 734.35235595703 101107.68544006 54511399.878813
4093	1705142 6483 14881 18576 213.25 260.75 191 486.85000610352 785.82187652588 107687.12206268 62530192.338082
vector 4212  IntersectionExampleScenario.node[69].veinsmobility  posx  ETV
vector 4213  IntersectionExampleScenario.node[69].veinsmobility  posy  ETV
vector 4214  IntersectionExampleScenario.node[69].veinsmobility  speed  ETV
vector 4215  IntersectionExampleScenario.node[69].veinsmobility  acceleration  ETV
vector 4216  IntersectionExampleScenario.node[69].veinsmobility  co2emission  ETV
4104	1712021 6012 14972 18675 214.75 262 190 0.973 11.648172402475 564.03377931051 2927.2473801533
4103	1718033 5570 14972 18675 214.75 262 190 -6.8118047714233 4 38.850629806519 487.16883314905
4102	1723603 5872 14957 18675 214.5 262 191 0 15.64999961853 2182.2330753803 30881.293914672
4101	1729475 6524 14941 18675 214.25 262 192 236.55523681641 483.14999389648 84624.101135254 38286814.114719
4100	1735999 6501 14941 18675 214.25 262 192 184.17810058594 483.24322509766 78612.306304932 34064121.508958
4125	1742500 5272 15463 18864 223.25 264.25 165 0.973 11.810082123732 556.10871630579 3377.3802075938
4124	1747772 5133 15463 18864 223.25 264.25 165 -3.1295642852783 2.5 39.699392318726 339.20980788974
4123	1752905 5316 15446 18864 223 264.25 166 5.6500000953674 15.875 2188.6384930611 30390.413254564
4122	1758221 5673 15431 18864 222.75 264.25 167 486.85000610352 734.53730773926 89413.512771606 48812764.042816
4121	1763894 5666 15431 18864 222.75 264.25 167 486.84280395508 785.82187652588 95526.833442688 56376567.768642
4118	1769560 5472 15391 18864 222 264.25 170 0.973 11.200708441096 513.64660967968 2771.3235299851
4117	1775032 5301 15391 18864 222 264.25 170 -2.6977157592773 2.5 35.625318527222 263.51930966614
4116	1780333 5592 15376 18864 221.75 264.25 171 5.6500000953674 15.02499961853 2225.5749392509 29952.980066343
4115	1785925 5848 15361 18864 221.5 264.25 172 483.14999389648 483.14999389648 83101.798950195 40150633.655574
4114	1791773 5822 15361 18864 221.5 264.25 172 184.17810058594 735.44421386719 77293.177108765 39067213.578964
vector 4219  IntersectionExampleScenario.node[70].veinsmobility  posx  ETV
vector 4220  IntersectionExampleScenario.node[70].veinsmobility  posy  ETV
vector 4221  IntersectionExampleScenario.node[70].veinsmobility  speed  ETV
vector 4222  IntersectionExampleScenario.node[70].veinsmobility  acceleration  ETV
vector 4223  IntersectionExampleScenario.node[70].veinsmobility  co2emission  ETV
vector 4226  IntersectionExampleScenario.node[71].veinsmobility  posx  ETV
vector 4227  IntersectionExampleScenario.node[71].veinsmobility  posy  ETV
vector 4233  IntersectionExampleScenario.node[72].veinsmobility  posx  ETV
vector 4234  IntersectionExampleScenario.node[72].veinsmobility  posy  ETV
vector 4228  IntersectionExampleScenario.node[71].veinsmobility  speed  ETV
4132	1798372 5605 15480 19063 223.5 266.5 173 0.973 11.450879080643 533.85899324903 2855.3504146055
4131	1803977 5524 15480 19063 223.5 266.5 173 -4.5 2.5 37.15309715271 286.97816552507
4130	1809501 5644 15463 19063 223.25 266.5 174 5.6500000953674 15.375 2305.4525279999 31529.217332134
4129	1815145 5938 15446 19063 223 266.5 175 237.18182373047 486.85000610352 76656.5362854 34583009.81287
4128	1821083 5927 15446 19063 223 266.5 175 483.14999389648 810.23281097412 101834.8330307 61508960.343408
vector 4229  IntersectionExampleScenario.node[71].veinsmobility  acceleration  ETV
vector 4230  IntersectionExampleScenario.node[71].veinsmobility  co2emission  ETV
vector 4235  IntersectionExampleScenario.node[72].veinsmobility  speed  ETV
vector 4236  IntersectionExampleScenario.node[72].veinsmobility  acceleration  ETV
vector 4237  IntersectionExampleScenario.node[72].veinsmobility  co2emission  ETV
vector 4240  IntersectionExampleScenario.node[73].veinsmobility  posx  ETV
vector 4241  IntersectionExampleScenario.node[73].veinsmobility  posy  ETV
4139	1827573 5531 15705 19333 226.75 269 170 0.973 11.810082123732 526.79098566979 2809.8908966581
4138	1833104 5450 15705 19333 226.75 269 170 -4.5 2.5 38.511121749878 286.33930221753
4137	1838554 5475 15686 19333 226.5 269 171 5.6500000953674 15.875 2287.9596595764 31956.258263897
4136	1844029 5843 15667 19333 226.25 269 172 486.85000610352 734.84159851074 92008.349151611 50183909.911547
4135	1849872 5832 15667 19333 226.25 269 172 486.85000610352 810.09049224854 99998.346351624 60270385.612912
vector 4242  IntersectionExampleScenario.node[73].veinsmobility  speed  ETV
vector 4243  IntersectionExampleScenario.node[73].veinsmobility  acceleration  ETV
vector 4244  IntersectionExampleScenario.node[73].veinsmobility  co2emission  ETV
4153	1855948 5392 16012 19681 230.75 272 166 0.973 11.810082123732 516.296085946 2865.7236141389
4152	1861340 5345 16012 19681 230.75 272 166 -4.5 2.5 38.511121749878 282.6465657078
4151	1866685 5334 15991 19681 230.5 272 167 5.6500000953674 15.875 2265.0272879601 32122.727312673
4150	1872019 5706 15970 19681 230.25 272 168 486.85000610352 734.9144744873 90066.303070068 49242237.345845
4149	1877725 5704 15970 19681 230.25 272 168 486.74108886719 804.15619659424 97259.322273254 58337761.22513
vector 4247  IntersectionExampleScenario.node[74].veinsmobility  posx  ETV
vector 4248  IntersectionExampleScenario.node[74].veinsmobility  posy  ETV
vector 4249  IntersectionExampleScenario.node[74].veinsmobility  speed  ETV
vector 4254  IntersectionExampleScenario.node[75].veinsmobility  posx  ETV
vector 4255  IntersectionExampleScenario.node[75].veinsmobility  posy  ETV
vector 4250  IntersectionExampleScenario.node[74].veinsmobility  acceleration  ETV
vector 4251  IntersectionExampleScenario.node[74].veinsmobility  co2emission  ETV
vector 4256  IntersectionExampleScenario.node[75].veinsmobility  speed  ETV
vector 4261  IntersectionExampleScenario.node[76].veinsmobility  posx  ETV
vector 4262  IntersectionExampleScenario.node[76].veinsmobility  posy  ETV
vector 4257  IntersectionExampleScenario.node[75].veinsmobility  acceleration  ETV
vector 4258  IntersectionExampleScenario.node[75].veinsmobility  co2emission  ETV
vector 4263  IntersectionExampleScenario.node[76].veinsmobility  speed  ETV
vector 4264  IntersectionExampleScenario.node[76].veinsmobility  acceleration  ETV
vector 4265  IntersectionExampleScenario.node[76].veinsmobility  co2emission  ETV
4111	1884617 6993 15085 20033 216.75 274.75 233 0.973 12.099024792222 619.72931336173 3240.3667614594
4110	1891610 6568 15085 20033 216.75 274.75 233 -8.5031824111938 4 40.378400802612 508.04601133652
4109	1898178 6674 15070 20033 216.5 274.75 234 0 16.27499961853 2196.5112962723 31894.830641631
4108	1904852 7976 15055 20033 216.25 274.75 235 483.14999389648 785.82187652588 128638.23091888 72442592.959101
4107	1912828 7989 15055 20033 216.25 274.75 235 483.14999389648 731.78149414062 121598.68095398 63977776.565427
vector 4268  IntersectionExampleScenario.node[77].veinsmobility  posx  ETV
vector 4269  IntersectionExampleScenario.node[77].veinsmobility  posy  ETV
vector 4275  IntersectionExampleScenario.node[78].veinsmobility  posx  ETV
vector 4276  IntersectionExampleScenario.node[78].veinsmobility  posy  ETV
vector 4270  IntersectionExampleScenario.node[77].veinsmobility  speed  ETV
vector 4271  IntersectionExampleScenario.node[77].veinsmobility  acceleration  ETV
vector 4272  IntersectionExampleScenario.node[77].veinsmobility  co2emission  ETV
vector 4277  IntersectionExampleScenario.node[78].veinsmobility  speed  ETV
vector 4278  IntersectionExampleScenario.node[78].veinsmobility  acceleration  ETV
vector 4279  IntersectionExampleScenario.node[78].veinsmobility  co2emission  ETV
vector 4282  IntersectionExampleScenario.node[79].veinsmobility  posx  ETV
vector 4283  IntersectionExampleScenario.node[79].veinsmobility  posy  ETV
vector 4284  IntersectionExampleScenario.node[79].veinsmobility  speed  ETV
vector 4285  IntersectionExampleScenario.node[79].veinsmobility  acceleration  ETV
vector 4286  IntersectionExampleScenario.node[79].veinsmobility  co2emission  ETV
vector 4289  IntersectionExampleScenario.node[80].veinsmobility  posx  ETV
vector 4290  IntersectionExampleScenario.node[80].veinsmobility  posy  ETV
vector 4291  IntersectionExampleScenario.node[80].veinsmobility  speed  ETV
vector 4296  IntersectionExampleScenario.node[81].veinsmobility  posx  ETV
vector 4297  IntersectionExampleScenario.node[81].veinsmobility  posy  ETV
vector 4292  IntersectionExampleScenario.node[80].veinsmobility  acceleration  ETV
vector 4293  IntersectionExampleScenario.node[80].veinsmobility  co2emission  ETV
vector 4298  IntersectionExampleScenario.node[81].veinsmobility  speed  ETV
vector 4299  IntersectionExampleScenario.node[81].veinsmobility  acceleration  ETV
vector 4300  IntersectionExampleScenario.node[81].veinsmobility  co2emission  ETV
vector 4303  IntersectionExampleScenario.node[82].veinsmobility  posx  ETV
vector 4304  IntersectionExampleScenario.node[82].veinsmobility  posy  ETV
vector 4305  IntersectionExampleScenario.node[82].veinsmobility  speed  ETV
4146	1923026 7165 15951 22104 230 290 241 0.973 12.099024792222 626.99492154727 3245.212033716
4145	1930191 6663 15951 22104 230 290 241 -7.8777389526367 4 40.038900375366 509.53969327146
4144	1936854 6847 15932 22104 229.75 290 242 0 16.27499961853 2208.0519812107 31990.487532793
4143	1943701 8238 15913 22104 229.5 290 243 184.17810058594 486.85000610352 103075.05575562 45771252.017235
4142	1951939 8253 15913 22104 229.5 290 243 235.31896972656 486.85000610352 110019.52865601 50917370.062704
vector 4310  IntersectionExampleScenario.node[83].veinsmobility  posx  ETV
vector 4311  IntersectionExampleScenario.node[83].veinsmobility  posy  ETV
vector 4306  IntersectionExampleScenario.node[82].veinsmobility  acceleration  ETV
vector 4307  IntersectionExampleScenario.node[82].veinsmobility  co2emission  ETV
vector 4312  IntersectionExampleScenario.node[83].veinsmobility  speed  ETV
vector 4313  IntersectionExampleScenario.node[83].veinsmobility  acceleration  ETV
vector 4314  IntersectionExampleScenario.node[83].veinsmobility  co2emission  ETV
4167	1960755 6602 16740 22404 239.25 292.25 213 0.973 11.36141391502 556.77841102865 2737.8114983362
4166	1967357 6862 16740 22404 239.25 292.25 213 -3.9813897609711 2.5000004768372 36.813589096069 327.95787454598
4165	1974219 6963 16715 22404 239 292.25 214 0 15.25 2185.4251154624 28238.802295733
4164	1981182 7284 16690 22404 238.75 292.25 215 184.17810058594 483.27633666992 88276.657989502 38141778.03081
4163	1988466 7301 16690 22404 238.75 292.25 215 486.85000610352 733.34878540039 113073.81462097 60516654.943641
4181	1995767 6553 16924 22528 241 293.25 210 0.973 11.36141391502 619.64105700144 3115.789859884
4180	2002320 6752 16924 22528 241 293.25 210 -4.5 2.5 43.13600730896 451.24576348338
4179	2009072 6861 16895 22528 240.75 293.25 211 1.2275950908661 16.494049072266 2257.0748845339 31007.533522399
4178	2015933 7184 16866 22528 240.5 293.25 212 164.94219970703 483.14999389648 85266.479949951 36418984.893359
4177	2023117 7201 16866 22528 240.5 293.25 212 486.85000610352 731.89596557617 110890.79766846 58971139.66639
vector 4317  IntersectionExampleScenario.node[84].veinsmobility  posx  ETV
vector 4318  IntersectionExampleScenario.node[84].veinsmobility  posy  ETV
vector 4319  IntersectionExampleScenario.node[84].veinsmobility  speed  ETV
vector 4320  IntersectionExampleScenario.node[84].veinsmobility  acceleration  ETV
vector 4321  IntersectionExampleScenario.node[84].veinsmobility  co2emission  ETV
vector 4324  IntersectionExampleScenario.node[85].veinsmobility  posx  ETV
vector 4325  IntersectionExampleScenario.node[85].veinsmobility  posy  ETV
vector 4326  IntersectionExampleScenario.node[85].veinsmobility  speed  ETV
vector 4327  IntersectionExampleScenario.node[85].veinsmobility  acceleration  ETV
vector 4328  IntersectionExampleScenario.node[85].veinsmobility  co2emission  ETV
vector 4331  IntersectionExampleScenario.node[86].veinsmobility  posx  ETV
vector 4332  IntersectionExampleScenario.node[86].veinsmobility  posy  ETV
vector 4333  IntersectionExampleScenario.node[86].veinsmobility  speed  ETV
vector 4334  IntersectionExampleScenario.node[86].veinsmobility  acceleration  ETV
vector 4335  IntersectionExampleScenario.node[86].veinsmobility  co2emission  ETV
4209	2031506 5174 18576 23370 260.75 300.25 159 0.97223939240464 11.810082123732 515.76659945323 3003.8527205411
4208	2036680 5123 18576 23370 260.75 300.25 159 -3.7267303466797 2.5 38.680875778198 303.30782368163
4207	2041803 5115 18557 23370 260.5 300.25 160 5.6500000953674 15.875 2189.588760376 31313.150423334
4206	2046918 5446 18538 23370 260.25 300.25 161 184.17810058594 483.14999389648 63997.738983154 27177703.231222
4205	2052364 5470 18538 23370 260.25 300.25 161 486.85000610352 734.58724975586 86609.572891235 47526501.673679
4160	2057834 7566 16667 23733 238.5 303 259 0.87724236611116 12.717865293408 675.29043195084 3730.6345801133
4159	2065400 7002 16667 23733 238.5 303 259 -7.4589095115662 4 43.943227767944 566.20693350132
4158	2072402 7050 16644 23733 238.25 303 260 0 17.125 2169.0034583807 32936.089023739
4157	2079452 8788 16621 23733 238 303 261 239.22973632812 483.14999389648 118706.44119263 54975069.83333
4156	2088240 8849 16621 23733 238 303 261 184.17810058594 483.36395263672 111703.51315308 49832834.718501
vector 4338  IntersectionExampleScenario.node[87].veinsmobility  posx  ETV
vector 4339  IntersectionExampleScenario.node[87].veinsmobility  posy  ETV
vector 4340  IntersectionExampleScenario.node[87].veinsmobility  speed  ETV
4188	2097318 7082 17727 24082 249 305.75 228 0.973 11.54047740176 578.82274871981 2797.1463860412
4187	2104400 7431 17727 24082 249 305.75 228 -3.8910021781921 2.5000019073486 36.98334312439 335.87491401506
4186	2111831 7605 17706 24082 248.75 305.75 229 0 15.5 2218.8808588721 29149.42309928
4185	2119436 7821 17685 24082 248.5 305.75 230 483.14999389648 483.14999389648 111124.49859619 53689800.8185
4184	2127257 7777 17685 24082 248.5 305.75 230 184.17810058594 734.23007202148 103854.89512634 51144100.353416
vector 4341  IntersectionExampleScenario.node[87].veinsmobility  acceleration  ETV
vector 4342  IntersectionExampleScenario.node[87].veinsmobility  co2emission  ETV
4174	2135201 7875 16924 24175 241 306.5 263 0.973 11.243229260693 622.70360870469 2771.5155787313
4173	2143076 7296 16924 24175 241 306.5 263 -8.4870567321777 4 37.15309715271 475.70474077376
4172	2150372 7716 16895 24175 240.75 306.5 264 0 15.084589958191 2203.1565067619 30464.033447476
4171	2158088 9005 16866 24175 240.5 306.5 265 235.75964355469 486.85000610352 120355.26733398 55824950.512207
4170	2167093 8997 16866 24175 240.5 306.5 265 482.99182128906 785.82187652588 143947.9540329 80326201.292696
4202	2176090 6028 18431 24206 258.75 306.75 193 0.973 11.54047740176 543.36670832465 2770.5032752283
4201	2182118 6133 18431 24206 258.75 306.75 193 -4.5 2.5 36.98334312439 323.94129008099
4200	2188251 6425 18412 24206 258.5 306.75 194 1.987147808075 15.5 2215.4052696228 29210.221392838
4199	2194676 6632 18393 24206 258.25 306.75 195 486.85000610352 486.85000610352 94935.751190186 46219471.046384
4198	2201308 6617 18393 24206 258.25 306.75 195 236.70989990234 785.82187652588 101614.38248444 57172622.25745
vector 4345  IntersectionExampleScenario.node[88].veinsmobility  posx  ETV
vector 4346  IntersectionExampleScenario.node[88].veinsmobility  posy  ETV
vector 4347  IntersectionExampleScenario.node[88].veinsmobility  speed  ETV
4237	2208154 5385 19117 24447 267 308.75 168 0.973 11.648172402475 567.11470199437 3316.2718133514
4236	2213539 5205 19117 24447 267 308.75 168 -3.0772819519043 2.5 39.529638290405 359.42055673376
4235	2218744 5413 19090 24447 266.75 308.75 169 5.6500000953674 15.64999961853 2186.687567234 30052.827799691
4234	2224157 5774 19063 24447 266.5 308.75 170 236.04119873047 483.14999389648 74034.925262451 33184494.843635
4233	2229931 5754 19063 24447 266.5 308.75 170 184.17810058594 483.14999389648 67786.932342529 28768411.48132
vector 4348  IntersectionExampleScenario.node[88].veinsmobility  acceleration  ETV
vector 4349  IntersectionExampleScenario.node[88].veinsmobility  co2emission  ETV
4230	2235852 5548 19090 24602 266.75 310 174 0.973 11.36141391502 549.14583247305 3112.4386964312
4229	2241400 5382 19090 24602 266.75 310 174 -3.7101650238037 2.5 36.643835067749 348.72537357061
4228	2246782 5633 19063 24602 266.5 310 175 5.6500000953674 15.25 2178.3707528114 28585.472660531
4227	2252415 5978 19038 24602 266.25 310 176 486.85000610352 732.01957702637 94014.671356201 51184282.784648
4226	2258393 5974 19038 24602 266.25 310 176 486.85000610352 785.82187652588 100622.12090302 59300438.360347
4244	2264367 5446 19391 24748 269.5 311.25 168 0.973 11.810082123732 533.78428224478 2992.8843149548
4243	2269813 5269 19391 24748 269.5 311.25 168 -4.5 2.5 39.869146347046 307.6048727478
4242	2275082 5422 19362 24748 269.25 311.25 169 5.6500000953674 15.875 2252.1404299736 31541.504007512
4241	2280504 5772 19333 24748 269 311.25 170 235.94702148438 483.14999389648 74084.886535645 33226741.984691
4240	2286276 5758 19333 24748 269 311.25 170 168.58435058594 483.33706665039 66695.138122559 28136796.237356
4195	2292034 7547 18223 25594 255.75 319.75 257 0.973 12.099024792222 642.62957379842 3280.35963263
4194	2299581 6991 18223 25594 255.75 319.75 257 -7.8776445388794 4 40.038900375366 513.03881719338
4193	2306572 7182 18206 25594 255.5 319.75 258 0 16.27499961853 2205.5864975452 32071.414867027
4192	2313754 8782 18188 25594 255.25 319.75 259 238.29949951172 785.82187652588 132815.11814117 72167589.197369
4191	2322536 8808 18188 25594 255.25 319.75 259 483.14999389648 483.14999389648 125135.84841919 60459384.399963
vector 4352  IntersectionExampleScenario.node[89].veinsmobility  posx  ETV
vector 4353  IntersectionExampleScenario.node[89].veinsmobility  posy  ETV
4216	2331496 7500 18675 25741 262 321.5 239 0.973 11.810082123732 609.50430663998 3056.8910253699
4215	2338996 7868 18675 25741 262 321.5 239 -3.9273512363434 2.5000000298023 39.699392318726 358.30784486985
4214	2346864 7866 18654 25741 261.75 321.5 240 0 15.875 2187.6623463929 29728.462918425
4213	2354730 8184 18633 25741 261.5 321.5 241 486.85000610352 785.82187652588 132951.39994049 75288189.396954
4212	2362914 8186 18633 25741 261.5 321.5 241 236.11242675781 483.14999389648 108377.56082153 49790809.01641
vector 4354  IntersectionExampleScenario.node[89].veinsmobility  speed  ETV
vector 4355  IntersectionExampleScenario.node[89].veinsmobility  acceleration  ETV
vector 4356  IntersectionExampleScenario.node[89].veinsmobility  co2emission  ETV
4223	2371344 7164 19015 25868 266 323 229 0.973 11.990504229548 613.93437689213 3139.3372557405
4222	2378508 7506 19015 25868 266 323 229 -4.1499404907227 2.5 40.887662887573 391.26963863601
4221	2386014 7613 18992 25868 265.75 323 230 0 16.125 2240.129649967 30633.202521526
4220	2393627 7826 18969 25868 265.5 323 231 236.91778564453 792.02188110352 121190.02571106 67756380.264078
4219	2401453 7853 18969 25868 265.5 323 231 483.14999389648 483.14999389648 111607.64859009 53923234.735102
4258	2409306 6380 19896 26082 273.75 325.75 209 0.96740780467969 12.099024792222 571.94228479436 3155.761146792
4257	2415686 6576 19896 26082 273.75 325.75 209 -3.8057873249054 2.5000019073486 41.227170944214 346.84306523007
4256	2422262 6803 19863 26082 273.5 325.75 210 0 16.27499961853 2213.977844879 29873.759377978
4255	2429065 7159 19830 26082 273.25 325.75 211 483.14999389648 785.82187652588 118382.83463287 68258471.992263
4254	2436224 7166 19830 26082 273.25 325.75 211 483.14999389648 734.1771697998 110063.97450256 58455763.59633
4293	2443390 5549 21348 26240 284.75 328 174 0.973 11.54047740176 532.58208052359 2908.8138123211
4292	2448939 5388 21348 26240 284.75 328 174 -2.9374008178711 2.5 37.32285118103 287.02737034596
4291	2454327 5706 21313 26240 284.5 328 175 5.6500000953674 15.5 2219.6796050072 29660.338666872
4290	2460033 5952 21278 26240 284.25 328 176 236.12225341797 785.82187652588 92176.541679382 52504490.134426
4289	2465985 5984 21278 26240 284.25 328 176 483.14999389648 483.14999389648 85034.398925781 41084369.321982
vector 4359  IntersectionExampleScenario.node[90].veinsmobility  posx  ETV
vector 4360  IntersectionExampleScenario.node[90].veinsmobility  posy  ETV
vector 4361  IntersectionExampleScenario.node[90].veinsmobility  speed  ETV
vector 4362  IntersectionExampleScenario.node[90].veinsmobility  acceleration  ETV
vector 4363  IntersectionExampleScenario.node[90].veinsmobility  co2emission  ETV
vector 4366  IntersectionExampleScenario.node[91].veinsmobility  posx  ETV
vector 4367  IntersectionExampleScenario.node[91].veinsmobility  posy  ETV
vector 4368  IntersectionExampleScenario.node[91].veinsmobility  speed  ETV
vector 4369  IntersectionExampleScenario.node[91].veinsmobility  acceleration  ETV
vector 4370  IntersectionExampleScenario.node[91].veinsmobility  co2emission  ETV
4300	2472761 5865 21422 26413 285.25 330.25 181 0.973 11.450879080643 562.45615149196 2970.6122799906
4299	2478626 5631 21422 26413 285.25 330.25 181 -4.5 2.5 38.680875778198 353.05256244355
4298	2484257 5906 21385 26413 285 330.25 182 5.6500000953674 15.375 2306.0728545189 30944.797176981
4297	2490163 6213 21348 26413 284.75 330.25 183 483.14999389648 809.56562805176 106046.8168869 63643516.651468
4296	2496376 6215 21348 26413 284.75 330.25 183 483.14999389648 733.44078063965 96802.589950562 52219675.989599
vector 4373  IntersectionExampleScenario.node[92].veinsmobility  posx  ETV
vector 4374  IntersectionExampleScenario.node[92].veinsmobility  posy  ETV
vector 4375  IntersectionExampleScenario.node[92].veinsmobility  speed  ETV
vector 4376  IntersectionExampleScenario.node[92].veinsmobility  acceleration  ETV
vector 4377  IntersectionExampleScenario.node[92].veinsmobility  co2emission  ETV
4307	2502987 5308 22137 26593 290.25 332.25 169 0.973 11.810082123732 517.31724278174 2938.2977438215
4306	2508295 5340 22137 26593 290.25 332.25 169 -3.4091911315918 2.5 40.038900375366 268.54041252818
4305	2513635 5450 22104 26593 290 332.25 170 5.6500000953674 15.875 2227.3307142258 30751.639969403
4304	2519085 5807 22070 26593 289.75 332.25 171 486.71725463867 797.29298400879 98524.73475647 58673637.805051
4303	2524892 5811 22070 26593 289.75 332.25 171 237.79571533203 483.14999389648 74692.77923584 33548515.120557
4251	2530703 7549 19830 26881 273.25 336 252 0.973 11.200708441096 599.84641838167 2734.7984161604
4250	2538252 6928 19830 26881 273.25 336 252 -7.2451009750366 4 35.455564498901 451.74224126615
4249	2545180 7332 19799 26881 273 336 253 0 15.02499961853 2205.2530751228 29948.741050566
4248	2552512 8604 19768 26881 272.75 336 254 184.17810058594 486.85000610352 107704.38262939 47795273.57725
4247	2561116 8618 19768 26881 272.75 336 254 235.61370849609 486.85000610352 114779.0637207 53045641.935415
4265	2569734 7705 19966 26976 274.25 337.75 255 0.973 11.200708441096 628.8109363248 2804.188693185
4264	2577439 7068 19966 26976 274.25 337.75 255 -4.5 2.5 38.341367721558 447.88597795025
4263	2584507 7498 19931 26976 274 337.75 256 0 15.300297737122 2289.4792640191 31916.257635125
4262	2592005 8702 19896 26976 273.75 337.75 257 162.00311279297 487.03863525391 106925.37133789 46948855.85078
4261	2600707 8723 19896 26976 273.75 337.75 257 238.2587890625 486.85000610352 116796.87542725 54187504.378098
4272	2609430 7724 20500 27041 278.5 339 243 0.973 11.990504229548 628.68398185347 3150.3434617805
4271	2617154 8033 20500 27041 278.5 339 243 -3.7377777099609 2.5000004768372 40.038900375366 393.36325779542
[...]
vector 7413  IntersectionExampleScenario.node[526].veinsmobility  speed  ETV
vector 7414  IntersectionExampleScenario.node[526].veinsmobility  acceleration  ETV
vector 7415  IntersectionExampleScenario.node[526].veinsmobility  co2emission  ETV
vector 7418  IntersectionExampleScenario.node[527].veinsmobility  posx  ETV
vector 7419  IntersectionExampleScenario.node[527].veinsmobility  posy  ETV
vector 7420  IntersectionExampleScenario.node[527].veinsmobility  speed  ETV
vector 7421  IntersectionExampleScenario.node[527].veinsmobility  acceleration  ETV
vector 7422  IntersectionExampleScenario.node[527].veinsmobility  co2emission  ETV
7338	18144428 5436 158952 162231 1734.5 1773 155 0.973 11.90022389248 500.15632620018 2778.9868925169
7337	18149864 5007 158952 162231 1734.5 1773 155 -3.5925788879395 2.5 39.699392318726 250.14584796603
7336	18154871 5322 158937 162231 1734.25 1773 156 5.6500000953674 16 2211.3224658966 32374.308685309
7335	18160193 5644 158922 162231 1734 1773 157 483.14999389648 785.82187652588 89800.838661194 53124394.923681
7334	18165837 5613 158922 162231 1734 1773 157 483.14999389648 733.79339599609 84130.041183472 46026738.564277
vector 7425  IntersectionExampleScenario.node[528].veinsmobility  posx  ETV
vector 7426  IntersectionExampleScenario.node[528].veinsmobility  posy  ETV
vector 7427  IntersectionExampleScenario.node[528].veinsmobility  speed  ETV
vector 7428  IntersectionExampleScenario.node[528].veinsmobility  acceleration  ETV
vector 7429  IntersectionExampleScenario.node[528].veinsmobility  co2emission  ETV
vector 7432  IntersectionExampleScenario.node[529].veinsmobility  posx  ETV
vector 7433  IntersectionExampleScenario.node[529].veinsmobility  posy  ETV
vector 7439  IntersectionExampleScenario.node[530].veinsmobility  posx  ETV
vector 7440  IntersectionExampleScenario.node[530].veinsmobility  posy  ETV
vector 7434  IntersectionExampleScenario.node[529].veinsmobility  speed  ETV
vector 7435  IntersectionExampleScenario.node[529].veinsmobility  acceleration  ETV
vector 7436  IntersectionExampleScenario.node[529].veinsmobility  co2emission  ETV
vector 7441  IntersectionExampleScenario.node[530].veinsmobility  speed  ETV
vector 7442  IntersectionExampleScenario.node[530].veinsmobility  acceleration  ETV
vector 7443  IntersectionExampleScenario.node[530].veinsmobility  co2emission  ETV
vector 7446  IntersectionExampleScenario.node[531].veinsmobility  posx  ETV
vector 7447  IntersectionExampleScenario.node[531].veinsmobility  posy  ETV
vector 7448  IntersectionExampleScenario.node[531].veinsmobility  speed  ETV
vector 7449  IntersectionExampleScenario.node[531].veinsmobility  acceleration  ETV
vector 7450  IntersectionExampleScenario.node[531].veinsmobility  co2emission  ETV
vector 7453  IntersectionExampleScenario.node[532].veinsmobility  posx  ETV
vector 7454  IntersectionExampleScenario.node[532].veinsmobility  posy  ETV
vector 7455  IntersectionExampleScenario.node[532].veinsmobility  speed  ETV
vector 7456  IntersectionExampleScenario.node[532].veinsmobility  acceleration  ETV
vector 7457  IntersectionExampleScenario.node[532].veinsmobility  co2emission  ETV
7373	18173455 5453 159925 163301 1746.25 1784.75 155 0.973 11.648172402475 469.58057745547 2455.5999638002
7372	18178908 5117 159925 163301 1746.25 1784.75 155 -3.1871070861816 2.5 38.001859664917 189.58778524466
7371	18184025 5370 159902 163301 1746 1784.75 156 5.6500000953674 15.64999961853 2219.4500265121 32203.742242535
7370	18189395 5626 159879 163301 1745.75 1784.75 157 184.17810058594 733.83720397949 70507.44039917 35831871.179075
7369	18195021 5653 159879 163301 1745.75 1784.75 157 486.85000610352 486.85000610352 76435.450958252 37212599.76555
vector 7460  IntersectionExampleScenario.node[533].veinsmobility  posx  ETV
vector 7461  IntersectionExampleScenario.node[533].veinsmobility  posy  ETV
vector 7462  IntersectionExampleScenario.node[533].veinsmobility  speed  ETV
vector 7463  IntersectionExampleScenario.node[533].veinsmobility  acceleration  ETV
vector 7464  IntersectionExampleScenario.node[533].veinsmobility  co2emission  ETV
vector 7467  IntersectionExampleScenario.node[534].veinsmobility  posx  ETV
vector 7468  IntersectionExampleScenario.node[534].veinsmobility  posy  ETV
7331	18201229 8017 158400 163751 1726 1789 253 0.973 11.810082123732 628.19429951724 3094.1156540921
7330	18209246 7422 158400 163751 1726 1789 253 -9.0596437454224 4 39.359884262085 500.00740959224
7329	18216668 7591 158379 163751 1725.75 1789 254 0 15.875 2178.4695601463 30997.152766178
7328	18224259 9112 158358 163751 1725.5 1789 255 237.11529541016 483.14999389648 115164.19155884 53071579.862721
7327	18233371 9146 158358 163751 1725.5 1789 255 184.17810058594 483.36395263672 108363.73800659 48105291.33528
vector 7469  IntersectionExampleScenario.node[534].veinsmobility  speed  ETV
vector 7470  IntersectionExampleScenario.node[534].veinsmobility  acceleration  ETV
vector 7471  IntersectionExampleScenario.node[534].veinsmobility  co2emission  ETV
7324	18242764 8079 158400 163808 1726 1789.5 255 0.973 11.648172402475 619.46002953173 2953.5557019336
7323	18250843 7496 158400 163808 1726 1789.5 255 -6.7527532577515 4 37.832105636597 462.13123502623
7322	18258339 7688 158379 163808 1725.75 1789.5 256 0 15.64999961853 2186.7632188797 30529.540276261
7321	18266027 9180 158358 163808 1725.5 1789.5 257 486.85000610352 735.27168273926 133511.74139404 70471259.683473
7320	18275207 9242 158358 163808 1725.5 1789.5 257 486.63604736328 785.82187652588 140125.63140106 78475013.203004
vector 7474  IntersectionExampleScenario.node[535].veinsmobility  posx  ETV
vector 7475  IntersectionExampleScenario.node[535].veinsmobility  posy  ETV
vector 7476  IntersectionExampleScenario.node[535].veinsmobility  speed  ETV
vector 7477  IntersectionExampleScenario.node[535].veinsmobility  acceleration  ETV
vector 7478  IntersectionExampleScenario.node[535].veinsmobility  co2emission  ETV
7366	18284850 6739 159337 163951 1739.75 1790.75 205 0.973 11.54047740176 554.57962141548 2773.8288086188
7365	18291589 6966 159337 163951 1739.75 1790.75 205 -3.8088512420654 2.5000002384186 37.15309715271 332.16102749204
7364	18298555 7250 159314 163951 1739.5 1790.75 206 0 15.5 2218.6971821748 29254.681361404
7363	18305805 7454 159291 163951 1739.25 1790.75 207 486.85000610352 486.85000610352 100777.95126343 49063746.187699
7362	18313259 7426 159291 163951 1739.25 1790.75 207 235.86767578125 785.82187652588 107637.66121674 60205013.907681
7359	18320685 6990 159186 163980 1738 1791 213 0.973 12.099024792222 590.35370788057 3169.2595880831
7358	18327675 7340 159186 163980 1738 1791 213 -3.8457033634186 2.5 41.227170944214 346.33687163487
7357	18335015 7405 159165 163980 1737.75 1791 214 0 16.27499961853 2178.2006832249 29617.758919218
7356	18342420 7723 159144 163980 1737.5 1791 215 238.53662109375 483.14999389648 96133.810302734 43961471.807542
7355	18350143 7704 159144 163980 1737.5 1791 215 184.17810058594 483.14999389648 88644.098876953 38401460.529711
vector 7481  IntersectionExampleScenario.node[536].veinsmobility  posx  ETV
vector 7482  IntersectionExampleScenario.node[536].veinsmobility  posy  ETV
vector 7483  IntersectionExampleScenario.node[536].veinsmobility  speed  ETV
vector 7484  IntersectionExampleScenario.node[536].veinsmobility  acceleration  ETV
vector 7485  IntersectionExampleScenario.node[536].veinsmobility  co2emission  ETV
vector 7488  IntersectionExampleScenario.node[537].veinsmobility  posx  ETV
vector 7489  IntersectionExampleScenario.node[537].veinsmobility  posy  ETV
vector 7490  IntersectionExampleScenario.node[537].veinsmobility  speed  ETV
vector 7491  IntersectionExampleScenario.node[537].veinsmobility  acceleration  ETV
vector 7492  IntersectionExampleScenario.node[537].veinsmobility  co2emission  ETV
7387	18358649 5658 160540 164452 1754.25 1795 164 0.973 11.403744404565 537.54657267872 3170.7243925475
7386	18364307 5458 160540 164452 1754.25 1795 164 -3.5970916748047 2.5 36.98334312439 338.12926012749
7385	18369765 5617 160519 164452 1754 1795 165 5.6500000953674 15.309166908264 2184.8154354095 30148.770366704
7384	18375382 5971 160498 164452 1753.75 1795 166 486.85000610352 733.30503845215 89189.988037109 48870509.929217
7383	18381353 5969 160498 164452 1753.75 1795 166 486.83520507812 785.82187652588 95029.883552551 56165239.50779
vector 7495  IntersectionExampleScenario.node[538].veinsmobility  posx  ETV
vector 7496  IntersectionExampleScenario.node[538].veinsmobility  posy  ETV
vector 7502  IntersectionExampleScenario.node[539].veinsmobility  posx  ETV
vector 7503  IntersectionExampleScenario.node[539].veinsmobility  posy  ETV
vector 7497  IntersectionExampleScenario.node[538].veinsmobility  speed  ETV
vector 7504  IntersectionExampleScenario.node[539].veinsmobility  speed  ETV
vector 7498  IntersectionExampleScenario.node[538].veinsmobility  acceleration  ETV
vector 7499  IntersectionExampleScenario.node[538].veinsmobility  co2emission  ETV
vector 7505  IntersectionExampleScenario.node[539].veinsmobility  acceleration  ETV
vector 7506  IntersectionExampleScenario.node[539].veinsmobility  co2emission  ETV
7345	18388124 7900 159091 165072 1736.75 1800 254 0.973 11.648172402475 606.5546839888 2961.4308817978
7344	18396024 7399 159091 165072 1736.75 1800 254 -7.3478107452393 4 38.511125564575 487.93623443869
7343	18403423 7460 159074 165072 1736.5 1800 255 0 15.64999961853 1961.1037728786 27649.121818861
7342	18410883 9207 159057 165072 1736.25 1800 256 316.23162841797 802.70781707764 137289.4909668 76874816.547568
7341	18420090 9216 159057 165072 1736.25 1800 256 483.14999389648 483.14999389648 123686.3984375 59759082.650156
7352	18429306 8250 159165 165072 1737.75 1800 250 0.973 10.67980820418 575.19759481232 2517.3600870306
7351	18437556 8354 159165 165072 1737.75 1800 250 -4.5 2.5 35.795362472534 393.23969663201
7350	18445910 8334 159144 165072 1737.5 1800 251 0 14.835809707642 1866.7351770774 24654.491799382
7349	18454244 9057 159125 165072 1737.25 1800 252 354.26049804688 816.43984985352 139604.25959015 80508963.224699
7348	18463301 9072 159125 165072 1737.25 1800 252 483.14999389648 483.14999389648 121753.79846191 58825346.983747
7380	18472373 6156 160441 165072 1753 1800 189 0.973 12.099024792222 526.47143671559 3028.2736099647
7379	18478529 6472 160441 165072 1753 1800 189 -3.734384059906 2.5 41.39695930481 347.7909266807
7378	18485001 6565 160422 165072 1752.75 1800 190 0 16.27499961853 1635.4420234244 20951.022224597
7377	18491566 6863 160403 165072 1752.5 1800 191 483.13073730469 785.82187652588 108769.67745209 63600866.439318
7376	18498429 6870 160403 165072 1752.5 1800 191 483.14999389648 589.7858581543 93850.961456299 46211151.894123
7394	18505299 4922 161099 165072 1761.25 1800 156 0.973 11.810082123732 470.63513796428 2872.3846456832
7393	18510221 5052 161099 165072 1761.25 1800 156 -2.4990711212158 2.5 39.504266738892 347.57245007091
7392	18515273 5324 161078 165072 1761 1800 157 1.9601263999939 15.875 1455.4820373058 16899.196955871
7391	18520597 5674 161057 165072 1760.75 1800 158 486.85000610352 785.82187652588 92972.20665741 56134213.20536
7390	18526271 5686 161057 165072 1760.75 1800 158 419.35125732422 483.14999389648 75678.944946289 36272366.194069
7401	18531957 5308 161187 165072 1762.25 1800 152 0.973 10.916047529558 447.24085344634 2270.7292308984
7400	18537265 5059 161187 165072 1762.25 1800 152 -3.5147724151611 2.5 33.927793502808 248.07583948197
7399	18542324 5210 161164 165072 1762 1800 153 5.6500000953674 14.625 1955.9819588661 25965.80072214
7398	18547534 5537 161141 165072 1761.75 1800 154 486.85000610352 676.44166564941 80230.407287598 42280870.611091
7397	18553071 5536 161141 165072 1761.75 1800 154 486.85000610352 785.82187652588 89481.670928955 53674377.575714
7408	18558607 3943 161768 165072 1768.5 1800 127 0.973 11.648172402475 301.06623764468 1512.728365175
7407	18562550 4035 161768 165072 1768.5 1800 127 -6.8352928161621 2.5 -22.60000038147 312.46012077467
7406	18566585 4041 161741 165072 1768.25 1800 128 0 15.64999961853 1147.5549864769 15953.056401974
7405	18570626 4615 161716 165072 1768 1800 129 184.17810058594 471.60000610352 47928.746612549 19146467.293258
7404	18575241 4642 161716 165072 1768 1800 129 486.85000610352 486.85000610352 62803.650787354 30575957.769146
7415	18579883 4025 161795 165072 1768.75 1800 126 0.973 11.944584495094 315.34787385436 1573.298716475
7414	18583908 3931 161795 165072 1768.75 1800 126 -4.5 2.5000038146973 -22.60000038147 329.86268131551
7413	18587839 4162 161768 165072 1768.5 1800 127 -0.1697883605957 16.061424255371 1230.5727393031 17430.795759983
7412	18592001 4542 161741 165072 1768.25 1800 128 159.76721191406 467.5 45147.046478271 17469151.313489
7411	18596543 4608 161741 165072 1768.25 1800 128 486.85000610352 486.85000610352 62316.80078125 30338934.840703
7422	18601151 3772 162075 165072 1771.5 1800 115 0.973 11.648172402475 292.8694674767 1476.6756169666
7421	18604923 3970 162075 165072 1771.5 1800 115 -4.5 2.5 -21.433235526085 262.44452367847
7420	18608893 4150 162048 165072 1771.25 1800 116 0 15.64999961853 1209.4988477454 16724.105456994
7419	18613043 4197 162021 165072 1771 1800 117 157.59509277344 460.21768188477 39761.263153076 14817788.694041
7418	18617240 4210 162021 165072 1771 1800 117 486.85000610352 486.85000610352 56961.450714111 27731682.62783
7429	18621450 3195 162493 165072 1776 1800 97 0.973 11.648172402475 275.42536323017 1462.0522786636
7428	18624645 3149 162493 165072 1776 1800 97 -8.013355255127 2.5 -22.60000038147 328.35842840725
7427	18627794 3354 162472 165072 1775.75 1800 98 0 15.64999961853 1146.4864730835 16293.758593308
7426	18631148 3563 162451 165072 1775.5 1800 99 486.85000610352 486.85000610352 48198.150604248 23465269.915856
7425	18634711 3555 162451 165072 1775.5 1800 99 498.39999389648 785.82187652588 62044.737312317 39852257.529313
7436	18638266 2595 162801 165072 1779.75 1800 82 0.973 11.648172402475 233.83377457587 1362.7681714747
7435	18640861 2842 162801 165072 1779.75 1800 82 -2.1660385131836 2.5 -3.4008350372314 160.94244468694
7434	18643703 2968 162778 165072 1779.5 1800 83 4.7997913360596 15.64999961853 995.60645103455 13074.381032483
7433	18646671 3003 162757 165072 1779.25 1800 84 184.17810058594 431.67065429688 26399.590576172 8859168.4179728
7432	18649674 3024 162757 165072 1779.25 1800 84 486.85000610352 486.85000610352 40895.400512695 19909925.989211
7443	18652698 2808 162824 165072 1780 1800 81 0.973 11.200708441096 252.59088750668 1320.8930664296
7442	18655506 2449 162824 165072 1780 1800 81 -3.1472797393799 2.5 7.8775634765625 181.57032763352
7441	18657955 2936 162801 165072 1779.75 1800 82 5.6500000953674 15.02499961853 1116.9804396629 15743.529098786
7440	18660891 2987 162778 165072 1779.5 1800 83 483.14999389648 483.14999389648 40101.449493408 19375015.07798
7439	18663878 2965 162778 165072 1779.5 1800 83 184.17810058594 461.09567260742 26211.731140137 8905102.4003357
7450	18666843 2440 163012 165072 1782 1800 73 0.973 11.648172402475 236.86340799336 1391.725631924
7449	18669283 2571 163012 165072 1782 1800 73 -2.8621826171875 2.5 8.4618854522705 162.86134711244
7448	18671854 2648 162987 165072 1781.75 1800 74 5.6500000953674 15.64999961853 1006.2509908676 14301.090090238
7447	18674502 2699 162962 165072 1781.5 1800 75 486.85000610352 486.85000610352 36513.750457764 17776719.633224
7446	18677201 2695 162962 165072 1781.5 1800 75 536.93942260742 785.82187652588 49995.821174622 33804232.414302
7457	18679896 2326 163166 165072 1783.5 1800 67 0.973 11.648172402475 237.11492701861 1416.7356230183
7456	18682222 2318 163166 165072 1783.5 1800 67 -4.5 2.5 11.088441848755 214.4902304446
7455	18684540 2431 163139 165072 1783.25 1800 68 5.6500000953674 15.64999961853 931.97454166412 13310.357611254
7454	18686971 2482 163112 165072 1783 1800 69 486.85000610352 486.85000610352 33592.650421143 16354582.062567
7453	18689453 2473 163112 165072 1783 1800 69 575.97375488281 806.11563110352 48178.35294342 34009295.108871
7464	18691926 1743 163643 165072 1788 1800 49 0.973 10.756497587458 179.27447550248 1061.3490993186
7463	18693669 1741 163643 165072 1788 1800 49 -0.48529815673828 2.5 33.612287521362 87.851854071636
7462	18695410 1785 163616 165072 1787.75 1800 50 5.6500000953674 14.39999961853 647.03390312195 8664.6719128501
7461	18697195 1813 163589 165072 1787.5 1800 51 184.17810058594 341.26885986328 12993.279541016 3433753.1648721
7460	18699008 1835 163589 165072 1787.5 1800 51 486.85000610352 486.85000610352 24829.350311279 12088169.350593
7471	18700843 1532 163808 165072 1789.5 1800 43 0.973 11.648172402475 189.92325841115 1306.2917841442
7470	18702375 1462 163808 165072 1789.5 1800 43 -0.42850112915039 2.5 38.829504013062 100.30429298152
7469	18703837 1569 163780 165072 1789.25 1800 44 5.6500000953674 15.64999961853 601.43101406097 8632.8174046044
7468	18705406 1618 163751 165072 1789 1800 45 486.85000610352 486.85000610352 21908.250274658 10666031.779935
7467	18707024 1617 163751 165072 1789 1800 45 640.61383056641 785.82187652588 32519.990730286 23595589.954907
7478	18708641 1433 163893 165072 1790.25 1800 40 1.6778656626784 11.200708441096 174.13226676759 1159.7286131411
7477	18710074 1363 163893 165072 1790.25 1800 40 -0.12916564941406 2.5 36.983724594116 93.788124821996
7476	18711437 1461 163864 165072 1790 1800 41 5.6500000953674 15.02499961853 538.18305206299 7401.338633622
7475	18712898 1507 163835 165072 1789.75 1800 42 656.24096679688 785.82187652588 30634.987983704 22415642.769477
7474	18714405 1511 163835 165072 1789.75 1800 42 483.14999389648 483.14999389648 20292.299743652 9804224.4972913
7485	18715916 1219 164070 165072 1791.75 1800 34 2.0299638531845 10.756497587458 161.6401187386 1058.9311001909
7484	18717135 1118 164070 165072 1791.75 1800 34 -0.030826568603516 2.5 37.156995773315 88.149988324705
7483	18718253 1247 164040 165072 1791.5 1800 35 5.6500000953674 14.9690990448 447.49904727936 6031.4722443464
7482	18719500 1278 164009 165072 1791.25 1800 36 176.21716308594 283.15301513672 7985.1641845703 1812371.69776
7481	18720778 1296 164009 165072 1791.25 1800 36 486.85000610352 486.85000610352 17526.600219727 8532825.4239478
7492	18722074 1003 164248 165072 1793.25 1800 28 1.986667772344 11.200708441096 149.85370111665 1110.3267223219
7491	18723077 883 164248 165072 1793.25 1800 28 -0.044288635253906 2.5 37.32705116272 93.754471371842
7490	18723960 1032 164217 165072 1793 1800 29 5.6500000953674 15.02499961853 360.27894592285 4764.0057559646
7489	18724992 1076 164186 165072 1792.75 1800 30 713.5184173584 798.59687805176 22896.51360321 17496827.406061
7488	18726068 1079 164186 165072 1792.75 1800 30 483.14999389648 483.14999389648 14494.499816895 7003017.4980652
7499	18727147 624 164544 165072 1795.75 1800 18 0.973 11.648172402475 136.19653707584 1190.7470633759
7498	18727771 471 164544 165072 1795.75 1800 18 -0.45709991455078 2.5 39.200075149536 100.32645842406
7497	18728242 673 164513 165072 1795.5 1800 19 5.6500000953674 15.64999961853 212.03573894501 2567.6192105631
7496	18728915 720 164481 165072 1795.25 1800 20 486.85000610352 486.85000610352 9737.0001220703 4740458.5688599
7495	18729635 720 164481 165072 1795.25 1800 20 738.00358581543 785.82187652588 15336.959999084 11765613.579306
7506	18730355 643 164544 165072 1795.75 1800 18 1.3699353896297 11.200708441096 127.23456566652 1060.3816747215
7505	18730998 485 164544 165072 1795.75 1800 18 -0.21404266357422 2.5 37.005025863647 93.836070668596
7504	18731483 674 164513 165072 1795.5 1800 19 5.6500000953674 15.02499961853 210.2040977478 2511.7732323444
7503	18732157 720 164481 165072 1795.25 1800 20 483.14999389648 483.14999389648 9662.9998779297 4668678.3320435
7502	18732877 703 164481 165072 1795.25 1800 20 184.17810058594 231.76049804688 4062.7192382812 829763.0724249
3725	18733580 602 0 165071 0 1800 31 0 24 489 8465
3726	18734182 618 0 165071 0 1800 31 0 193 2895 371559
