version 2
run nodebug-45-20200605-20:49:16-14344
attr configname nodebug
attr datetime 20200605-20:49:16
attr experiment nodebug
attr inifile omnetpp.ini
attr iterationvars ""
attr iterationvars2 $repetition=45
attr measurement ""
attr network "\"org.car2x.veins.modules.application.ExtTraCIScenarioManagerLaunchd.IntersectionExampleScenario\""
attr processid 14344
attr repetition 45
attr replication #45
attr resultdir results
attr runnumber 45
attr seedset 45
param **.coreDebug false
param **.debug false
param *.**.nic.mac1609_4.bitrate 18Mbps
param *.**.nic.mac1609_4.txPower 20mW
param *.**.nic.mac1609_4.useServiceChannel false
param *.**.nic.phy80211p.analogueModels "xmldoc(\"config.xml\")"
param *.**.nic.phy80211p.decider "xmldoc(\"config.xml\")"
param *.**.nic.phy80211p.sensitivity -89dBm
param *.**.nic.phy80211p.thermalNoise -110dBm
param *.**.nic.phy80211p.usePropagationDelay true
param *.**.nic.phy80211p.useThermalNoise true
param *.annotations.draw false
param *.connectionManager.alpha 2.0
param *.connectionManager.carrierFrequency "5.890e9 Hz"
param *.connectionManager.pMax 20mW
param *.connectionManager.sat -89dBm
param *.connectionManager.sendDirect true
param *.manager.autoShutdown true
param *.manager.host "\"localhost\""
param *.manager.launchConfig "xmldoc(\"paramics.launchd.xml\")"
param *.manager.margin 25
param *.manager.moduleDisplayString "\"\""
param *.manager.moduleName "\"node\""
param *.manager.moduleType "\"org.car2x.veins.nodes.Car\""
param *.manager.port 9999
param *.manager.updateInterval 250ms
param *.node[*0].veinsmobility.accidentCount 0
param *.node[*0].veinsmobility.accidentDuration 30s
param *.node[*0].veinsmobility.accidentStart 75s
param *.node[*].appl.LiderSelectZoneRadio 55.0
param *.node[*].appl.ShareDataZoneRadio 110.0
param *.node[*].appl.TiempoSemaforo 30.0
param *.node[*].appl.beaconInterval 1s
param *.node[*].appl.beaconPriority 3
param *.node[*].appl.dataOnSch false
param *.node[*].appl.dataPriority 2
param *.node[*].appl.debug false
param *.node[*].appl.headerLength "256 bit"
param *.node[*].appl.maxOffset 0.005s
param *.node[*].appl.sendBeacons false
param *.node[*].appl.sendData true
param *.node[*].applType "\"Dummy\""
param *.node[*].mobilityType "\"TraCIMobility\""
param *.node[*].mobilityType.debug true
param *.node[*].veinsmobility.x 0
param *.node[*].veinsmobility.y 0
param *.node[*].veinsmobility.z 1.895
param *.node[*].veinsmobilityType "\"org.car2x.veins.modules.mobility.traci.TraCIMobility\""
param *.node[*].veinsmobilityType.debug true
param *.playgroundSizeX 8500m
param *.playgroundSizeY 8500m
param *.playgroundSizeZ 50m
param *.world.use2D false
param *.world.useTorus false

scalar IntersectionExampleScenario.node[2].appl 	VehicleRemoved 	0
scalar IntersectionExampleScenario.node[2].appl 	ArrivedAtDest 	1
scalar IntersectionExampleScenario.node[2].appl 	IntersectionEnterTime 	4.25
scalar IntersectionExampleScenario.node[2].appl 	IntersectionExitTime 	27.331262802385
scalar IntersectionExampleScenario.node[2].appl 	NumberOfCollisions 	0
scalar IntersectionExampleScenario.node[2].nic.phy80211p 	busyTime 	0
scalar IntersectionExampleScenario.node[2].nic.mac1609_4 	ReceivedUnicastPackets 	0
scalar IntersectionExampleScenario.node[2].nic.mac1609_4 	ReceivedBroadcasts 	0
scalar IntersectionExampleScenario.node[2].nic.mac1609_4 	SentPackets 	0
scalar IntersectionExampleScenario.node[2].nic.mac1609_4 	SNIRLostPackets 	0
scalar IntersectionExampleScenario.node[2].nic.mac1609_4 	RXTXLostPackets 	0
scalar IntersectionExampleScenario.node[2].nic.mac1609_4 	TotalLostPackets 	0
scalar IntersectionExampleScenario.node[2].nic.mac1609_4 	DroppedPacketsInMac 	0
scalar IntersectionExampleScenario.node[2].nic.mac1609_4 	TooLittleTime 	0
scalar IntersectionExampleScenario.node[2].nic.mac1609_4 	TimesIntoBackoff 	0
scalar IntersectionExampleScenario.node[2].nic.mac1609_4 	SlotsBackoff 	0
scalar IntersectionExampleScenario.node[2].nic.mac1609_4 	NumInternalContention 	0
scalar IntersectionExampleScenario.node[2].nic.mac1609_4 	totalBusyTime 	0
scalar IntersectionExampleScenario.node[2].veinsmobility 	startTime 	4.25
scalar IntersectionExampleScenario.node[2].veinsmobility 	totalTime 	39.25
scalar IntersectionExampleScenario.node[2].veinsmobility 	stopTime 	43.75
scalar IntersectionExampleScenario.node[2].veinsmobility 	minSpeed 	5.6500000953674
scalar IntersectionExampleScenario.node[2].veinsmobility 	maxSpeed 	15.5
scalar IntersectionExampleScenario.node[2].veinsmobility 	totalDistance 	552.7950592041
scalar IntersectionExampleScenario.node[2].veinsmobility 	totalCO2Emission 	116.15807789636
scalar IntersectionExampleScenario.node[3].appl 	VehicleRemoved 	0
scalar IntersectionExampleScenario.node[3].appl 	ArrivedAtDest 	1
scalar IntersectionExampleScenario.node[3].appl 	IntersectionEnterTime 	5.5
scalar IntersectionExampleScenario.node[3].appl 	IntersectionExitTime 	30.285333400709
scalar IntersectionExampleScenario.node[3].appl 	NumberOfCollisions 	0
scalar IntersectionExampleScenario.node[3].nic.phy80211p 	busyTime 	0
scalar IntersectionExampleScenario.node[3].nic.mac1609_4 	ReceivedUnicastPackets 	0
scalar IntersectionExampleScenario.node[3].nic.mac1609_4 	ReceivedBroadcasts 	0
scalar IntersectionExampleScenario.node[3].nic.mac1609_4 	SentPackets 	0
scalar IntersectionExampleScenario.node[3].nic.mac1609_4 	SNIRLostPackets 	0
scalar IntersectionExampleScenario.node[3].nic.mac1609_4 	RXTXLostPackets 	0
scalar IntersectionExampleScenario.node[3].nic.mac1609_4 	TotalLostPackets 	0
scalar IntersectionExampleScenario.node[3].nic.mac1609_4 	DroppedPacketsInMac 	0
scalar IntersectionExampleScenario.node[3].nic.mac1609_4 	TooLittleTime 	0
scalar IntersectionExampleScenario.node[3].nic.mac1609_4 	TimesIntoBackoff 	0
scalar IntersectionExampleScenario.node[3].nic.mac1609_4 	SlotsBackoff 	0
scalar IntersectionExampleScenario.node[3].nic.mac1609_4 	NumInternalContention 	0
scalar IntersectionExampleScenario.node[3].nic.mac1609_4 	totalBusyTime 	0
scalar IntersectionExampleScenario.node[3].veinsmobility 	startTime 	5.5
scalar IntersectionExampleScenario.node[3].veinsmobility 	totalTime 	42.5
scalar IntersectionExampleScenario.node[3].veinsmobility 	stopTime 	48.25
scalar IntersectionExampleScenario.node[3].veinsmobility 	minSpeed 	5.6500000953674
scalar IntersectionExampleScenario.node[3].veinsmobility 	maxSpeed 	14.625
scalar IntersectionExampleScenario.node[3].veinsmobility 	totalDistance 	543.44130424444
scalar IntersectionExampleScenario.node[3].veinsmobility 	totalCO2Emission 	119.62776009996
scalar IntersectionExampleScenario.node[0].appl 	VehicleRemoved 	0
scalar IntersectionExampleScenario.node[0].appl 	ArrivedAtDest 	1
scalar IntersectionExampleScenario.node[0].appl 	IntersectionEnterTime 	1
scalar IntersectionExampleScenario.node[0].appl 	IntersectionExitTime 	35.259661195712
scalar IntersectionExampleScenario.node[0].appl 	NumberOfCollisions 	0
scalar IntersectionExampleScenario.node[0].nic.phy80211p 	busyTime 	0
scalar IntersectionExampleScenario.node[0].nic.mac1609_4 	ReceivedUnicastPackets 	0
scalar IntersectionExampleScenario.node[0].nic.mac1609_4 	ReceivedBroadcasts 	0
scalar IntersectionExampleScenario.node[0].nic.mac1609_4 	SentPackets 	0
scalar IntersectionExampleScenario.node[0].nic.mac1609_4 	SNIRLostPackets 	0
scalar IntersectionExampleScenario.node[0].nic.mac1609_4 	RXTXLostPackets 	0
scalar IntersectionExampleScenario.node[0].nic.mac1609_4 	TotalLostPackets 	0
scalar IntersectionExampleScenario.node[0].nic.mac1609_4 	DroppedPacketsInMac 	0
scalar IntersectionExampleScenario.node[0].nic.mac1609_4 	TooLittleTime 	0
scalar IntersectionExampleScenario.node[0].nic.mac1609_4 	TimesIntoBackoff 	0
scalar IntersectionExampleScenario.node[0].nic.mac1609_4 	SlotsBackoff 	0
scalar IntersectionExampleScenario.node[0].nic.mac1609_4 	NumInternalContention 	0
scalar IntersectionExampleScenario.node[0].nic.mac1609_4 	totalBusyTime 	0
scalar IntersectionExampleScenario.node[0].veinsmobility 	startTime 	1
scalar IntersectionExampleScenario.node[0].veinsmobility 	totalTime 	49.75
scalar IntersectionExampleScenario.node[0].veinsmobility 	stopTime 	51
scalar IntersectionExampleScenario.node[0].veinsmobility 	minSpeed 	0
scalar IntersectionExampleScenario.node[0].veinsmobility 	maxSpeed 	16
scalar IntersectionExampleScenario.node[0].veinsmobility 	totalDistance 	550.89945220947
scalar IntersectionExampleScenario.node[0].veinsmobility 	totalCO2Emission 	145.42993106623
scalar IntersectionExampleScenario.node[1].appl 	VehicleRemoved 	0
scalar IntersectionExampleScenario.node[1].appl 	ArrivedAtDest 	1
scalar IntersectionExampleScenario.node[1].appl 	IntersectionEnterTime 	2.5
scalar IntersectionExampleScenario.node[1].appl 	IntersectionExitTime 	37.270415556093
scalar IntersectionExampleScenario.node[1].appl 	NumberOfCollisions 	0
scalar IntersectionExampleScenario.node[1].nic.phy80211p 	busyTime 	0
scalar IntersectionExampleScenario.node[1].nic.mac1609_4 	ReceivedUnicastPackets 	0
scalar IntersectionExampleScenario.node[1].nic.mac1609_4 	ReceivedBroadcasts 	0
scalar IntersectionExampleScenario.node[1].nic.mac1609_4 	SentPackets 	0
scalar IntersectionExampleScenario.node[1].nic.mac1609_4 	SNIRLostPackets 	0
scalar IntersectionExampleScenario.node[1].nic.mac1609_4 	RXTXLostPackets 	0
scalar IntersectionExampleScenario.node[1].nic.mac1609_4 	TotalLostPackets 	0
scalar IntersectionExampleScenario.node[1].nic.mac1609_4 	DroppedPacketsInMac 	0
scalar IntersectionExampleScenario.node[1].nic.mac1609_4 	TooLittleTime 	0
scalar IntersectionExampleScenario.node[1].nic.mac1609_4 	TimesIntoBackoff 	0
scalar IntersectionExampleScenario.node[1].nic.mac1609_4 	SlotsBackoff 	0
scalar IntersectionExampleScenario.node[1].nic.mac1609_4 	NumInternalContention 	0
scalar IntersectionExampleScenario.node[1].nic.mac1609_4 	totalBusyTime 	0
scalar IntersectionExampleScenario.node[1].veinsmobility 	startTime 	2.5
scalar IntersectionExampleScenario.node[1].veinsmobility 	totalTime 	50.25
scalar IntersectionExampleScenario.node[1].veinsmobility 	stopTime 	53
scalar IntersectionExampleScenario.node[1].veinsmobility 	minSpeed 	0
scalar IntersectionExampleScenario.node[1].veinsmobility 	maxSpeed 	16.058835983276
scalar IntersectionExampleScenario.node[1].veinsmobility 	totalDistance 	571.95944213867
scalar IntersectionExampleScenario.node[1].veinsmobility 	totalCO2Emission 	147.7040026264
scalar IntersectionExampleScenario.node[4].appl 	VehicleRemoved 	0
scalar IntersectionExampleScenario.node[4].appl 	ArrivedAtDest 	1
scalar IntersectionExampleScenario.node[4].appl 	IntersectionEnterTime 	9.75
scalar IntersectionExampleScenario.node[4].appl 	IntersectionExitTime 	38.786210917839
scalar IntersectionExampleScenario.node[4].appl 	NumberOfCollisions 	0
scalar IntersectionExampleScenario.node[4].nic.phy80211p 	busyTime 	0
scalar IntersectionExampleScenario.node[4].nic.mac1609_4 	ReceivedUnicastPackets 	0
scalar IntersectionExampleScenario.node[4].nic.mac1609_4 	ReceivedBroadcasts 	0
scalar IntersectionExampleScenario.node[4].nic.mac1609_4 	SentPackets 	0
scalar IntersectionExampleScenario.node[4].nic.mac1609_4 	SNIRLostPackets 	0
scalar IntersectionExampleScenario.node[4].nic.mac1609_4 	RXTXLostPackets 	0
scalar IntersectionExampleScenario.node[4].nic.mac1609_4 	TotalLostPackets 	0
scalar IntersectionExampleScenario.node[4].nic.mac1609_4 	DroppedPacketsInMac 	0
scalar IntersectionExampleScenario.node[4].nic.mac1609_4 	TooLittleTime 	0
scalar IntersectionExampleScenario.node[4].nic.mac1609_4 	TimesIntoBackoff 	0
scalar IntersectionExampleScenario.node[4].nic.mac1609_4 	SlotsBackoff 	0
scalar IntersectionExampleScenario.node[4].nic.mac1609_4 	NumInternalContention 	0
scalar IntersectionExampleScenario.node[4].nic.mac1609_4 	totalBusyTime 	0
scalar IntersectionExampleScenario.node[4].veinsmobility 	startTime 	9.75
scalar IntersectionExampleScenario.node[4].veinsmobility 	totalTime 	45
scalar IntersectionExampleScenario.node[4].veinsmobility 	stopTime 	55
scalar IntersectionExampleScenario.node[4].veinsmobility 	minSpeed 	3.6322054862976
scalar IntersectionExampleScenario.node[4].veinsmobility 	maxSpeed 	16.5
scalar IntersectionExampleScenario.node[4].veinsmobility 	totalDistance 	542.85973989758
scalar IntersectionExampleScenario.node[4].veinsmobility 	totalCO2Emission 	141.4408647577
scalar IntersectionExampleScenario.node[5].appl 	VehicleRemoved 	0
scalar IntersectionExampleScenario.node[5].appl 	ArrivedAtDest 	1
scalar IntersectionExampleScenario.node[5].appl 	IntersectionEnterTime 	16
scalar IntersectionExampleScenario.node[5].appl 	IntersectionExitTime 	41.059819038375
scalar IntersectionExampleScenario.node[5].appl 	NumberOfCollisions 	0
scalar IntersectionExampleScenario.node[5].nic.phy80211p 	busyTime 	0
scalar IntersectionExampleScenario.node[5].nic.mac1609_4 	ReceivedUnicastPackets 	0
scalar IntersectionExampleScenario.node[5].nic.mac1609_4 	ReceivedBroadcasts 	0
scalar IntersectionExampleScenario.node[5].nic.mac1609_4 	SentPackets 	0
scalar IntersectionExampleScenario.node[5].nic.mac1609_4 	SNIRLostPackets 	0
scalar IntersectionExampleScenario.node[5].nic.mac1609_4 	RXTXLostPackets 	0
scalar IntersectionExampleScenario.node[5].nic.mac1609_4 	TotalLostPackets 	0
scalar IntersectionExampleScenario.node[5].nic.mac1609_4 	DroppedPacketsInMac 	0
scalar IntersectionExampleScenario.node[5].nic.mac1609_4 	TooLittleTime 	0
scalar IntersectionExampleScenario.node[5].nic.mac1609_4 	TimesIntoBackoff 	0
scalar IntersectionExampleScenario.node[5].nic.mac1609_4 	SlotsBackoff 	0
scalar IntersectionExampleScenario.node[5].nic.mac1609_4 	NumInternalContention 	0
scalar IntersectionExampleScenario.node[5].nic.mac1609_4 	totalBusyTime 	0
scalar IntersectionExampleScenario.node[5].veinsmobility 	startTime 	16
scalar IntersectionExampleScenario.node[5].veinsmobility 	totalTime 	40.5
scalar IntersectionExampleScenario.node[5].veinsmobility 	stopTime 	56.75
scalar IntersectionExampleScenario.node[5].veinsmobility 	minSpeed 	5.6500000953674
scalar IntersectionExampleScenario.node[5].veinsmobility 	maxSpeed 	16.27499961853
scalar IntersectionExampleScenario.node[5].veinsmobility 	totalDistance 	551.56998443604
scalar IntersectionExampleScenario.node[5].veinsmobility 	totalCO2Emission 	137.8418575098
scalar IntersectionExampleScenario.node[6].appl 	VehicleRemoved 	0
scalar IntersectionExampleScenario.node[6].appl 	ArrivedAtDest 	1
scalar IntersectionExampleScenario.node[6].appl 	IntersectionEnterTime 	16.25
scalar IntersectionExampleScenario.node[6].appl 	IntersectionExitTime 	40.009317597694
scalar IntersectionExampleScenario.node[6].appl 	NumberOfCollisions 	0
scalar IntersectionExampleScenario.node[6].nic.phy80211p 	busyTime 	0
scalar IntersectionExampleScenario.node[6].nic.mac1609_4 	ReceivedUnicastPackets 	0
scalar IntersectionExampleScenario.node[6].nic.mac1609_4 	ReceivedBroadcasts 	0
scalar IntersectionExampleScenario.node[6].nic.mac1609_4 	SentPackets 	0
scalar IntersectionExampleScenario.node[6].nic.mac1609_4 	SNIRLostPackets 	0
scalar IntersectionExampleScenario.node[6].nic.mac1609_4 	RXTXLostPackets 	0
scalar IntersectionExampleScenario.node[6].nic.mac1609_4 	TotalLostPackets 	0
scalar IntersectionExampleScenario.node[6].nic.mac1609_4 	DroppedPacketsInMac 	0
scalar IntersectionExampleScenario.node[6].nic.mac1609_4 	TooLittleTime 	0
scalar IntersectionExampleScenario.node[6].nic.mac1609_4 	TimesIntoBackoff 	0
scalar IntersectionExampleScenario.node[6].nic.mac1609_4 	SlotsBackoff 	0
scalar IntersectionExampleScenario.node[6].nic.mac1609_4 	NumInternalContention 	0
scalar IntersectionExampleScenario.node[6].nic.mac1609_4 	totalBusyTime 	0
scalar IntersectionExampleScenario.node[6].veinsmobility 	startTime 	16.25
scalar IntersectionExampleScenario.node[6].veinsmobility 	totalTime 	40.5
scalar IntersectionExampleScenario.node[6].veinsmobility 	stopTime 	57
scalar IntersectionExampleScenario.node[6].veinsmobility 	minSpeed 	5.6500000953674
scalar IntersectionExampleScenario.node[6].veinsmobility 	maxSpeed 	15.64999961853
scalar IntersectionExampleScenario.node[6].veinsmobility 	totalDistance 	549.60248760343
scalar IntersectionExampleScenario.node[6].veinsmobility 	totalCO2Emission 	125.25331333237
scalar IntersectionExampleScenario.node[8].appl 	VehicleRemoved 	0
scalar IntersectionExampleScenario.node[8].appl 	ArrivedAtDest 	1
scalar IntersectionExampleScenario.node[8].appl 	IntersectionEnterTime 	23.5
scalar IntersectionExampleScenario.node[8].appl 	IntersectionExitTime 	46.531253802794
scalar IntersectionExampleScenario.node[8].appl 	NumberOfCollisions 	0
scalar IntersectionExampleScenario.node[8].nic.phy80211p 	busyTime 	0
scalar IntersectionExampleScenario.node[8].nic.mac1609_4 	ReceivedUnicastPackets 	0
scalar IntersectionExampleScenario.node[8].nic.mac1609_4 	ReceivedBroadcasts 	0
scalar IntersectionExampleScenario.node[8].nic.mac1609_4 	SentPackets 	0
scalar IntersectionExampleScenario.node[8].nic.mac1609_4 	SNIRLostPackets 	0
scalar IntersectionExampleScenario.node[8].nic.mac1609_4 	RXTXLostPackets 	0
scalar IntersectionExampleScenario.node[8].nic.mac1609_4 	TotalLostPackets 	0
scalar IntersectionExampleScenario.node[8].nic.mac1609_4 	DroppedPacketsInMac 	0
scalar IntersectionExampleScenario.node[8].nic.mac1609_4 	TooLittleTime 	0
scalar IntersectionExampleScenario.node[8].nic.mac1609_4 	TimesIntoBackoff 	0
scalar IntersectionExampleScenario.node[8].nic.mac1609_4 	SlotsBackoff 	0
scalar IntersectionExampleScenario.node[8].nic.mac1609_4 	NumInternalContention 	0
scalar IntersectionExampleScenario.node[8].nic.mac1609_4 	totalBusyTime 	0
scalar IntersectionExampleScenario.node[8].veinsmobility 	startTime 	23.5
scalar IntersectionExampleScenario.node[8].veinsmobility 	totalTime 	39.25
scalar IntersectionExampleScenario.node[8].veinsmobility 	stopTime 	63
scalar IntersectionExampleScenario.node[8].veinsmobility 	minSpeed 	5.6500000953674
scalar IntersectionExampleScenario.node[8].veinsmobility 	maxSpeed 	15.5
scalar IntersectionExampleScenario.node[8].veinsmobility 	totalDistance 	552.04515075684
scalar IntersectionExampleScenario.node[8].veinsmobility 	totalCO2Emission 	116.05476691069
scalar IntersectionExampleScenario.node[7].appl 	VehicleRemoved 	0
scalar IntersectionExampleScenario.node[7].appl 	ArrivedAtDest 	1
scalar IntersectionExampleScenario.node[7].appl 	IntersectionEnterTime 	21.25
scalar IntersectionExampleScenario.node[7].appl 	IntersectionExitTime 	51.263820682419
scalar IntersectionExampleScenario.node[7].appl 	NumberOfCollisions 	0
scalar IntersectionExampleScenario.node[7].nic.phy80211p 	busyTime 	0
scalar IntersectionExampleScenario.node[7].nic.mac1609_4 	ReceivedUnicastPackets 	0
scalar IntersectionExampleScenario.node[7].nic.mac1609_4 	ReceivedBroadcasts 	0
scalar IntersectionExampleScenario.node[7].nic.mac1609_4 	SentPackets 	0
scalar IntersectionExampleScenario.node[7].nic.mac1609_4 	SNIRLostPackets 	0
scalar IntersectionExampleScenario.node[7].nic.mac1609_4 	RXTXLostPackets 	0
scalar IntersectionExampleScenario.node[7].nic.mac1609_4 	TotalLostPackets 	0
scalar IntersectionExampleScenario.node[7].nic.mac1609_4 	DroppedPacketsInMac 	0
scalar IntersectionExampleScenario.node[7].nic.mac1609_4 	TooLittleTime 	0
scalar IntersectionExampleScenario.node[7].nic.mac1609_4 	TimesIntoBackoff 	0
scalar IntersectionExampleScenario.node[7].nic.mac1609_4 	SlotsBackoff 	0
scalar IntersectionExampleScenario.node[7].nic.mac1609_4 	NumInternalContention 	0
scalar IntersectionExampleScenario.node[7].nic.mac1609_4 	totalBusyTime 	0
scalar IntersectionExampleScenario.node[7].veinsmobility 	startTime 	21.25
scalar IntersectionExampleScenario.node[7].veinsmobility 	totalTime 	46.25
scalar IntersectionExampleScenario.node[7].veinsmobility 	stopTime 	67.75
scalar IntersectionExampleScenario.node[7].veinsmobility 	minSpeed 	0
scalar IntersectionExampleScenario.node[7].veinsmobility 	maxSpeed 	15.375
scalar IntersectionExampleScenario.node[7].veinsmobility 	totalDistance 	553.95890045166
scalar IntersectionExampleScenario.node[7].veinsmobility 	totalCO2Emission 	135.11763024714
scalar IntersectionExampleScenario.node[9].appl 	VehicleRemoved 	0
scalar IntersectionExampleScenario.node[9].appl 	ArrivedAtDest 	1
scalar IntersectionExampleScenario.node[9].appl 	IntersectionEnterTime 	37
scalar IntersectionExampleScenario.node[9].appl 	IntersectionExitTime 	59.763780164794
scalar IntersectionExampleScenario.node[9].appl 	NumberOfCollisions 	0
scalar IntersectionExampleScenario.node[9].nic.phy80211p 	busyTime 	0
scalar IntersectionExampleScenario.node[9].nic.mac1609_4 	ReceivedUnicastPackets 	0
scalar IntersectionExampleScenario.node[9].nic.mac1609_4 	ReceivedBroadcasts 	0
scalar IntersectionExampleScenario.node[9].nic.mac1609_4 	SentPackets 	0
scalar IntersectionExampleScenario.node[9].nic.mac1609_4 	SNIRLostPackets 	0
scalar IntersectionExampleScenario.node[9].nic.mac1609_4 	RXTXLostPackets 	0
scalar IntersectionExampleScenario.node[9].nic.mac1609_4 	TotalLostPackets 	0
scalar IntersectionExampleScenario.node[9].nic.mac1609_4 	DroppedPacketsInMac 	0
scalar IntersectionExampleScenario.node[9].nic.mac1609_4 	TooLittleTime 	0
scalar IntersectionExampleScenario.node[9].nic.mac1609_4 	TimesIntoBackoff 	0
scalar IntersectionExampleScenario.node[9].nic.mac1609_4 	SlotsBackoff 	0
scalar IntersectionExampleScenario.node[9].nic.mac1609_4 	NumInternalContention 	0
scalar IntersectionExampleScenario.node[9].nic.mac1609_4 	totalBusyTime 	0
scalar IntersectionExampleScenario.node[9].veinsmobility 	startTime 	37
scalar IntersectionExampleScenario.node[9].veinsmobility 	totalTime 	39
scalar IntersectionExampleScenario.node[9].veinsmobility 	stopTime 	76.25
scalar IntersectionExampleScenario.node[9].veinsmobility 	minSpeed 	5.6500000953674
scalar IntersectionExampleScenario.node[9].veinsmobility 	maxSpeed 	16.5
scalar IntersectionExampleScenario.node[9].veinsmobility 	totalDistance 	546.46704807575
scalar IntersectionExampleScenario.node[9].veinsmobility 	totalCO2Emission 	131.5274498964
scalar IntersectionExampleScenario.node[10].appl 	VehicleRemoved 	0
scalar IntersectionExampleScenario.node[10].appl 	ArrivedAtDest 	1
scalar IntersectionExampleScenario.node[10].appl 	IntersectionEnterTime 	41.25
scalar IntersectionExampleScenario.node[10].appl 	IntersectionExitTime 	64.267003162997
scalar IntersectionExampleScenario.node[10].appl 	NumberOfCollisions 	0
scalar IntersectionExampleScenario.node[10].nic.phy80211p 	busyTime 	0
scalar IntersectionExampleScenario.node[10].nic.mac1609_4 	ReceivedUnicastPackets 	0
scalar IntersectionExampleScenario.node[10].nic.mac1609_4 	ReceivedBroadcasts 	0
scalar IntersectionExampleScenario.node[10].nic.mac1609_4 	SentPackets 	0
scalar IntersectionExampleScenario.node[10].nic.mac1609_4 	SNIRLostPackets 	0
scalar IntersectionExampleScenario.node[10].nic.mac1609_4 	RXTXLostPackets 	0
scalar IntersectionExampleScenario.node[10].nic.mac1609_4 	TotalLostPackets 	0
scalar IntersectionExampleScenario.node[10].nic.mac1609_4 	DroppedPacketsInMac 	0
scalar IntersectionExampleScenario.node[10].nic.mac1609_4 	TooLittleTime 	0
scalar IntersectionExampleScenario.node[10].nic.mac1609_4 	TimesIntoBackoff 	0
scalar IntersectionExampleScenario.node[10].nic.mac1609_4 	SlotsBackoff 	0
scalar IntersectionExampleScenario.node[10].nic.mac1609_4 	NumInternalContention 	0
scalar IntersectionExampleScenario.node[10].nic.mac1609_4 	totalBusyTime 	0
scalar IntersectionExampleScenario.node[10].veinsmobility 	startTime 	41.25
scalar IntersectionExampleScenario.node[10].veinsmobility 	totalTime 	38.75
scalar IntersectionExampleScenario.node[10].veinsmobility 	stopTime 	80.25
scalar IntersectionExampleScenario.node[10].veinsmobility 	minSpeed 	5.6500000953674
scalar IntersectionExampleScenario.node[10].veinsmobility 	maxSpeed 	15.64999961853
scalar IntersectionExampleScenario.node[10].veinsmobility 	totalDistance 	555.27876281738
scalar IntersectionExampleScenario.node[10].veinsmobility 	totalCO2Emission 	118.50447435044
scalar IntersectionExampleScenario.node[12].appl 	VehicleRemoved 	0
scalar IntersectionExampleScenario.node[12].appl 	ArrivedAtDest 	1
scalar IntersectionExampleScenario.node[12].appl 	IntersectionEnterTime 	48
scalar IntersectionExampleScenario.node[12].appl 	IntersectionExitTime 	71.325360732037
scalar IntersectionExampleScenario.node[12].appl 	NumberOfCollisions 	0
scalar IntersectionExampleScenario.node[12].nic.phy80211p 	busyTime 	0
scalar IntersectionExampleScenario.node[12].nic.mac1609_4 	ReceivedUnicastPackets 	0
scalar IntersectionExampleScenario.node[12].nic.mac1609_4 	ReceivedBroadcasts 	0
scalar IntersectionExampleScenario.node[12].nic.mac1609_4 	SentPackets 	0
scalar IntersectionExampleScenario.node[12].nic.mac1609_4 	SNIRLostPackets 	0
scalar IntersectionExampleScenario.node[12].nic.mac1609_4 	RXTXLostPackets 	0
scalar IntersectionExampleScenario.node[12].nic.mac1609_4 	TotalLostPackets 	0
scalar IntersectionExampleScenario.node[12].nic.mac1609_4 	DroppedPacketsInMac 	0
scalar IntersectionExampleScenario.node[12].nic.mac1609_4 	TooLittleTime 	0
scalar IntersectionExampleScenario.node[12].nic.mac1609_4 	TimesIntoBackoff 	0
scalar IntersectionExampleScenario.node[12].nic.mac1609_4 	SlotsBackoff 	0
scalar IntersectionExampleScenario.node[12].nic.mac1609_4 	NumInternalContention 	0
scalar IntersectionExampleScenario.node[12].nic.mac1609_4 	totalBusyTime 	0
scalar IntersectionExampleScenario.node[12].veinsmobility 	startTime 	48
scalar IntersectionExampleScenario.node[12].veinsmobility 	totalTime 	39.5
scalar IntersectionExampleScenario.node[12].veinsmobility 	stopTime 	87.75
scalar IntersectionExampleScenario.node[12].veinsmobility 	minSpeed 	5.6500000953674
scalar IntersectionExampleScenario.node[12].veinsmobility 	maxSpeed 	15.64999961853
scalar IntersectionExampleScenario.node[12].veinsmobility 	totalDistance 	549.74302701368
scalar IntersectionExampleScenario.node[12].veinsmobility 	totalCO2Emission 	122.48462072709
scalar IntersectionExampleScenario.node[14].appl 	VehicleRemoved 	0
scalar IntersectionExampleScenario.node[14].appl 	ArrivedAtDest 	1
scalar IntersectionExampleScenario.node[14].appl 	IntersectionEnterTime 	56.25
scalar IntersectionExampleScenario.node[14].appl 	IntersectionExitTime 	79.818121857679
scalar IntersectionExampleScenario.node[14].appl 	NumberOfCollisions 	0
scalar IntersectionExampleScenario.node[14].nic.phy80211p 	busyTime 	0
scalar IntersectionExampleScenario.node[14].nic.mac1609_4 	ReceivedUnicastPackets 	0
scalar IntersectionExampleScenario.node[14].nic.mac1609_4 	ReceivedBroadcasts 	0
scalar IntersectionExampleScenario.node[14].nic.mac1609_4 	SentPackets 	0
scalar IntersectionExampleScenario.node[14].nic.mac1609_4 	SNIRLostPackets 	0
scalar IntersectionExampleScenario.node[14].nic.mac1609_4 	RXTXLostPackets 	0
scalar IntersectionExampleScenario.node[14].nic.mac1609_4 	TotalLostPackets 	0
scalar IntersectionExampleScenario.node[14].nic.mac1609_4 	DroppedPacketsInMac 	0
scalar IntersectionExampleScenario.node[14].nic.mac1609_4 	TooLittleTime 	0
scalar IntersectionExampleScenario.node[14].nic.mac1609_4 	TimesIntoBackoff 	0
scalar IntersectionExampleScenario.node[14].nic.mac1609_4 	SlotsBackoff 	0
scalar IntersectionExampleScenario.node[14].nic.mac1609_4 	NumInternalContention 	0
scalar IntersectionExampleScenario.node[14].nic.mac1609_4 	totalBusyTime 	0
scalar IntersectionExampleScenario.node[14].veinsmobility 	startTime 	56.25
scalar IntersectionExampleScenario.node[14].veinsmobility 	totalTime 	40
scalar IntersectionExampleScenario.node[14].veinsmobility 	stopTime 	96.5
scalar IntersectionExampleScenario.node[14].veinsmobility 	minSpeed 	5.6500000953674
scalar IntersectionExampleScenario.node[14].veinsmobility 	maxSpeed 	15.375
scalar IntersectionExampleScenario.node[14].veinsmobility 	totalDistance 	550.87935602608
scalar IntersectionExampleScenario.node[14].veinsmobility 	totalCO2Emission 	121.213193859
scalar IntersectionExampleScenario.node[11].appl 	VehicleRemoved 	0
scalar IntersectionExampleScenario.node[11].appl 	ArrivedAtDest 	1
scalar IntersectionExampleScenario.node[11].appl 	IntersectionEnterTime 	46
scalar IntersectionExampleScenario.node[11].appl 	IntersectionExitTime 	82.348686787067
scalar IntersectionExampleScenario.node[11].appl 	NumberOfCollisions 	0
scalar IntersectionExampleScenario.node[11].nic.phy80211p 	busyTime 	0
scalar IntersectionExampleScenario.node[11].nic.mac1609_4 	ReceivedUnicastPackets 	0
scalar IntersectionExampleScenario.node[11].nic.mac1609_4 	ReceivedBroadcasts 	0
scalar IntersectionExampleScenario.node[11].nic.mac1609_4 	SentPackets 	0
scalar IntersectionExampleScenario.node[11].nic.mac1609_4 	SNIRLostPackets 	0
scalar IntersectionExampleScenario.node[11].nic.mac1609_4 	RXTXLostPackets 	0
scalar IntersectionExampleScenario.node[11].nic.mac1609_4 	TotalLostPackets 	0
scalar IntersectionExampleScenario.node[11].nic.mac1609_4 	DroppedPacketsInMac 	0
scalar IntersectionExampleScenario.node[11].nic.mac1609_4 	TooLittleTime 	0
scalar IntersectionExampleScenario.node[11].nic.mac1609_4 	TimesIntoBackoff 	0
scalar IntersectionExampleScenario.node[11].nic.mac1609_4 	SlotsBackoff 	0
scalar IntersectionExampleScenario.node[11].nic.mac1609_4 	NumInternalContention 	0
scalar IntersectionExampleScenario.node[11].nic.mac1609_4 	totalBusyTime 	0
scalar IntersectionExampleScenario.node[11].veinsmobility 	startTime 	46
scalar IntersectionExampleScenario.node[11].veinsmobility 	totalTime 	52.75
scalar IntersectionExampleScenario.node[11].veinsmobility 	stopTime 	99
scalar IntersectionExampleScenario.node[11].veinsmobility 	minSpeed 	0
scalar IntersectionExampleScenario.node[11].veinsmobility 	maxSpeed 	15.02499961853
scalar IntersectionExampleScenario.node[11].veinsmobility 	totalDistance 	551.77279663086
scalar IntersectionExampleScenario.node[11].veinsmobility 	totalCO2Emission 	140.67364085034
scalar IntersectionExampleScenario.node[13].appl 	VehicleRemoved 	0
scalar IntersectionExampleScenario.node[13].appl 	ArrivedAtDest 	1
scalar IntersectionExampleScenario.node[13].appl 	IntersectionEnterTime 	51
scalar IntersectionExampleScenario.node[13].appl 	IntersectionExitTime 	84.276544702909
scalar IntersectionExampleScenario.node[13].appl 	NumberOfCollisions 	0
scalar IntersectionExampleScenario.node[13].nic.phy80211p 	busyTime 	0
scalar IntersectionExampleScenario.node[13].nic.mac1609_4 	ReceivedUnicastPackets 	0
scalar IntersectionExampleScenario.node[13].nic.mac1609_4 	ReceivedBroadcasts 	0
scalar IntersectionExampleScenario.node[13].nic.mac1609_4 	SentPackets 	0
scalar IntersectionExampleScenario.node[13].nic.mac1609_4 	SNIRLostPackets 	0
scalar IntersectionExampleScenario.node[13].nic.mac1609_4 	RXTXLostPackets 	0
scalar IntersectionExampleScenario.node[13].nic.mac1609_4 	TotalLostPackets 	0
scalar IntersectionExampleScenario.node[13].nic.mac1609_4 	DroppedPacketsInMac 	0
scalar IntersectionExampleScenario.node[13].nic.mac1609_4 	TooLittleTime 	0
scalar IntersectionExampleScenario.node[13].nic.mac1609_4 	TimesIntoBackoff 	0
scalar IntersectionExampleScenario.node[13].nic.mac1609_4 	SlotsBackoff 	0
scalar IntersectionExampleScenario.node[13].nic.mac1609_4 	NumInternalContention 	0
scalar IntersectionExampleScenario.node[13].nic.mac1609_4 	totalBusyTime 	0
scalar IntersectionExampleScenario.node[13].veinsmobility 	startTime 	51
scalar IntersectionExampleScenario.node[13].veinsmobility 	totalTime 	49
scalar IntersectionExampleScenario.node[13].veinsmobility 	stopTime 	100.25
scalar IntersectionExampleScenario.node[13].veinsmobility 	minSpeed 	0
scalar IntersectionExampleScenario.node[13].veinsmobility 	maxSpeed 	16.016757965088
scalar IntersectionExampleScenario.node[13].veinsmobility 	totalDistance 	553.80387878418
scalar IntersectionExampleScenario.node[13].veinsmobility 	totalCO2Emission 	149.40456800557
scalar IntersectionExampleScenario.node[15].appl 	VehicleRemoved 	0
scalar IntersectionExampleScenario.node[15].appl 	ArrivedAtDest 	1
scalar IntersectionExampleScenario.node[15].appl 	IntersectionEnterTime 	67
scalar IntersectionExampleScenario.node[15].appl 	IntersectionExitTime 	90.833006463159
scalar IntersectionExampleScenario.node[15].appl 	NumberOfCollisions 	0
scalar IntersectionExampleScenario.node[15].nic.phy80211p 	busyTime 	0
scalar IntersectionExampleScenario.node[15].nic.mac1609_4 	ReceivedUnicastPackets 	0
scalar IntersectionExampleScenario.node[15].nic.mac1609_4 	ReceivedBroadcasts 	0
scalar IntersectionExampleScenario.node[15].nic.mac1609_4 	SentPackets 	0
scalar IntersectionExampleScenario.node[15].nic.mac1609_4 	SNIRLostPackets 	0
scalar IntersectionExampleScenario.node[15].nic.mac1609_4 	RXTXLostPackets 	0
scalar IntersectionExampleScenario.node[15].nic.mac1609_4 	TotalLostPackets 	0
scalar IntersectionExampleScenario.node[15].nic.mac1609_4 	DroppedPacketsInMac 	0
scalar IntersectionExampleScenario.node[15].nic.mac1609_4 	TooLittleTime 	0
scalar IntersectionExampleScenario.node[15].nic.mac1609_4 	TimesIntoBackoff 	0
scalar IntersectionExampleScenario.node[15].nic.mac1609_4 	SlotsBackoff 	0
scalar IntersectionExampleScenario.node[15].nic.mac1609_4 	NumInternalContention 	0
scalar IntersectionExampleScenario.node[15].nic.mac1609_4 	totalBusyTime 	0
scalar IntersectionExampleScenario.node[15].veinsmobility 	startTime 	67
scalar IntersectionExampleScenario.node[15].veinsmobility 	totalTime 	40.75
scalar IntersectionExampleScenario.node[15].veinsmobility 	stopTime 	108
scalar IntersectionExampleScenario.node[15].veinsmobility 	minSpeed 	5.6500000953674
scalar IntersectionExampleScenario.node[15].veinsmobility 	maxSpeed 	15.25
scalar IntersectionExampleScenario.node[15].veinsmobility 	totalDistance 	543.64338374356
scalar IntersectionExampleScenario.node[15].veinsmobility 	totalCO2Emission 	124.01051538148
scalar IntersectionExampleScenario.node[17].appl 	VehicleRemoved 	0
scalar IntersectionExampleScenario.node[17].appl 	ArrivedAtDest 	1
scalar IntersectionExampleScenario.node[17].appl 	IntersectionEnterTime 	73
scalar IntersectionExampleScenario.node[17].appl 	IntersectionExitTime 	95.831368161074
scalar IntersectionExampleScenario.node[17].appl 	NumberOfCollisions 	0
scalar IntersectionExampleScenario.node[17].nic.phy80211p 	busyTime 	0
scalar IntersectionExampleScenario.node[17].nic.mac1609_4 	ReceivedUnicastPackets 	0
scalar IntersectionExampleScenario.node[17].nic.mac1609_4 	ReceivedBroadcasts 	0
scalar IntersectionExampleScenario.node[17].nic.mac1609_4 	SentPackets 	0
scalar IntersectionExampleScenario.node[17].nic.mac1609_4 	SNIRLostPackets 	0
scalar IntersectionExampleScenario.node[17].nic.mac1609_4 	RXTXLostPackets 	0
scalar IntersectionExampleScenario.node[17].nic.mac1609_4 	TotalLostPackets 	0
scalar IntersectionExampleScenario.node[17].nic.mac1609_4 	DroppedPacketsInMac 	0
scalar IntersectionExampleScenario.node[17].nic.mac1609_4 	TooLittleTime 	0
scalar IntersectionExampleScenario.node[17].nic.mac1609_4 	TimesIntoBackoff 	0
scalar IntersectionExampleScenario.node[17].nic.mac1609_4 	SlotsBackoff 	0
scalar IntersectionExampleScenario.node[17].nic.mac1609_4 	NumInternalContention 	0
scalar IntersectionExampleScenario.node[17].nic.mac1609_4 	totalBusyTime 	0
scalar IntersectionExampleScenario.node[17].veinsmobility 	startTime 	73
scalar IntersectionExampleScenario.node[17].veinsmobility 	totalTime 	39
scalar IntersectionExampleScenario.node[17].veinsmobility 	stopTime 	112.25
scalar IntersectionExampleScenario.node[17].veinsmobility 	minSpeed 	5.6500000953674
scalar IntersectionExampleScenario.node[17].veinsmobility 	maxSpeed 	16.5
scalar IntersectionExampleScenario.node[17].veinsmobility 	totalDistance 	546.46704807575
scalar IntersectionExampleScenario.node[17].veinsmobility 	totalCO2Emission 	131.5274498964
scalar IntersectionExampleScenario.node[16].appl 	VehicleRemoved 	0
scalar IntersectionExampleScenario.node[16].appl 	ArrivedAtDest 	1
scalar IntersectionExampleScenario.node[16].appl 	IntersectionEnterTime 	72.25
scalar IntersectionExampleScenario.node[16].appl 	IntersectionExitTime 	96.509265424858
scalar IntersectionExampleScenario.node[16].appl 	NumberOfCollisions 	0
scalar IntersectionExampleScenario.node[16].nic.phy80211p 	busyTime 	0
scalar IntersectionExampleScenario.node[16].nic.mac1609_4 	ReceivedUnicastPackets 	0
scalar IntersectionExampleScenario.node[16].nic.mac1609_4 	ReceivedBroadcasts 	0
scalar IntersectionExampleScenario.node[16].nic.mac1609_4 	SentPackets 	0
scalar IntersectionExampleScenario.node[16].nic.mac1609_4 	SNIRLostPackets 	0
scalar IntersectionExampleScenario.node[16].nic.mac1609_4 	RXTXLostPackets 	0
scalar IntersectionExampleScenario.node[16].nic.mac1609_4 	TotalLostPackets 	0
scalar IntersectionExampleScenario.node[16].nic.mac1609_4 	DroppedPacketsInMac 	0
scalar IntersectionExampleScenario.node[16].nic.mac1609_4 	TooLittleTime 	0
scalar IntersectionExampleScenario.node[16].nic.mac1609_4 	TimesIntoBackoff 	0
scalar IntersectionExampleScenario.node[16].nic.mac1609_4 	SlotsBackoff 	0
scalar IntersectionExampleScenario.node[16].nic.mac1609_4 	NumInternalContention 	0
scalar IntersectionExampleScenario.node[16].nic.mac1609_4 	totalBusyTime 	0
scalar IntersectionExampleScenario.node[16].veinsmobility 	startTime 	72.25
scalar IntersectionExampleScenario.node[16].veinsmobility 	totalTime 	40.25
scalar IntersectionExampleScenario.node[16].veinsmobility 	stopTime 	112.75
scalar IntersectionExampleScenario.node[16].veinsmobility 	minSpeed 	4.7352809906006
scalar IntersectionExampleScenario.node[16].veinsmobility 	maxSpeed 	16.27499961853
scalar IntersectionExampleScenario.node[16].veinsmobility 	totalDistance 	551.64087549197
scalar IntersectionExampleScenario.node[16].veinsmobility 	totalCO2Emission 	133.95891275268
scalar IntersectionExampleScenario.node[19].appl 	VehicleRemoved 	0
scalar IntersectionExampleScenario.node[19].appl 	ArrivedAtDest 	1
scalar IntersectionExampleScenario.node[19].appl 	IntersectionEnterTime 	80.25
scalar IntersectionExampleScenario.node[19].appl 	IntersectionExitTime 	103.2977003126
scalar IntersectionExampleScenario.node[19].appl 	NumberOfCollisions 	0
scalar IntersectionExampleScenario.node[19].nic.phy80211p 	busyTime 	0
scalar IntersectionExampleScenario.node[19].nic.mac1609_4 	ReceivedUnicastPackets 	0
scalar IntersectionExampleScenario.node[19].nic.mac1609_4 	ReceivedBroadcasts 	0
scalar IntersectionExampleScenario.node[19].nic.mac1609_4 	SentPackets 	0
scalar IntersectionExampleScenario.node[19].nic.mac1609_4 	SNIRLostPackets 	0
scalar IntersectionExampleScenario.node[19].nic.mac1609_4 	RXTXLostPackets 	0
scalar IntersectionExampleScenario.node[19].nic.mac1609_4 	TotalLostPackets 	0
scalar IntersectionExampleScenario.node[19].nic.mac1609_4 	DroppedPacketsInMac 	0
scalar IntersectionExampleScenario.node[19].nic.mac1609_4 	TooLittleTime 	0
scalar IntersectionExampleScenario.node[19].nic.mac1609_4 	TimesIntoBackoff 	0
scalar IntersectionExampleScenario.node[19].nic.mac1609_4 	SlotsBackoff 	0
scalar IntersectionExampleScenario.node[19].nic.mac1609_4 	NumInternalContention 	0
scalar IntersectionExampleScenario.node[19].nic.mac1609_4 	totalBusyTime 	0
scalar IntersectionExampleScenario.node[19].veinsmobility 	startTime 	80.25
scalar IntersectionExampleScenario.node[19].veinsmobility 	totalTime 	39
scalar IntersectionExampleScenario.node[19].veinsmobility 	stopTime 	119.5
scalar IntersectionExampleScenario.node[19].veinsmobility 	minSpeed 	5.6500000953674
scalar IntersectionExampleScenario.node[19].veinsmobility 	maxSpeed 	16
scalar IntersectionExampleScenario.node[19].veinsmobility 	totalDistance 	550.80550149711
scalar IntersectionExampleScenario.node[19].veinsmobility 	totalCO2Emission 	124.6708928337
scalar IntersectionExampleScenario.node[21].appl 	VehicleRemoved 	0
scalar IntersectionExampleScenario.node[21].appl 	ArrivedAtDest 	1
scalar IntersectionExampleScenario.node[21].appl 	IntersectionEnterTime 	84.5
scalar IntersectionExampleScenario.node[21].appl 	IntersectionExitTime 	107.11760971654
scalar IntersectionExampleScenario.node[21].appl 	NumberOfCollisions 	0
scalar IntersectionExampleScenario.node[21].nic.phy80211p 	busyTime 	0
scalar IntersectionExampleScenario.node[21].nic.mac1609_4 	ReceivedUnicastPackets 	0
scalar IntersectionExampleScenario.node[21].nic.mac1609_4 	ReceivedBroadcasts 	0
scalar IntersectionExampleScenario.node[21].nic.mac1609_4 	SentPackets 	0
scalar IntersectionExampleScenario.node[21].nic.mac1609_4 	SNIRLostPackets 	0
scalar IntersectionExampleScenario.node[21].nic.mac1609_4 	RXTXLostPackets 	0
scalar IntersectionExampleScenario.node[21].nic.mac1609_4 	TotalLostPackets 	0
scalar IntersectionExampleScenario.node[21].nic.mac1609_4 	DroppedPacketsInMac 	0
scalar IntersectionExampleScenario.node[21].nic.mac1609_4 	TooLittleTime 	0
scalar IntersectionExampleScenario.node[21].nic.mac1609_4 	TimesIntoBackoff 	0
scalar IntersectionExampleScenario.node[21].nic.mac1609_4 	SlotsBackoff 	0
scalar IntersectionExampleScenario.node[21].nic.mac1609_4 	NumInternalContention 	0
scalar IntersectionExampleScenario.node[21].nic.mac1609_4 	totalBusyTime 	0
scalar IntersectionExampleScenario.node[21].veinsmobility 	startTime 	84.5
scalar IntersectionExampleScenario.node[21].veinsmobility 	totalTime 	38
scalar IntersectionExampleScenario.node[21].veinsmobility 	stopTime 	122.75
scalar IntersectionExampleScenario.node[21].veinsmobility 	minSpeed 	5.6500000953674
scalar IntersectionExampleScenario.node[21].veinsmobility 	maxSpeed 	16.125
scalar IntersectionExampleScenario.node[21].veinsmobility 	totalDistance 	551.6651763916
scalar IntersectionExampleScenario.node[21].veinsmobility 	totalCO2Emission 	119.99297835631
scalar IntersectionExampleScenario.node[18].appl 	VehicleRemoved 	0
scalar IntersectionExampleScenario.node[18].appl 	ArrivedAtDest 	1
scalar IntersectionExampleScenario.node[18].appl 	IntersectionEnterTime 	78
scalar IntersectionExampleScenario.node[18].appl 	IntersectionExitTime 	113.34863952699
scalar IntersectionExampleScenario.node[18].appl 	NumberOfCollisions 	0
scalar IntersectionExampleScenario.node[18].nic.phy80211p 	busyTime 	0
scalar IntersectionExampleScenario.node[18].nic.mac1609_4 	ReceivedUnicastPackets 	0
scalar IntersectionExampleScenario.node[18].nic.mac1609_4 	ReceivedBroadcasts 	0
scalar IntersectionExampleScenario.node[18].nic.mac1609_4 	SentPackets 	0
scalar IntersectionExampleScenario.node[18].nic.mac1609_4 	SNIRLostPackets 	0
scalar IntersectionExampleScenario.node[18].nic.mac1609_4 	RXTXLostPackets 	0
scalar IntersectionExampleScenario.node[18].nic.mac1609_4 	TotalLostPackets 	0
scalar IntersectionExampleScenario.node[18].nic.mac1609_4 	DroppedPacketsInMac 	0
scalar IntersectionExampleScenario.node[18].nic.mac1609_4 	TooLittleTime 	0
scalar IntersectionExampleScenario.node[18].nic.mac1609_4 	TimesIntoBackoff 	0
scalar IntersectionExampleScenario.node[18].nic.mac1609_4 	SlotsBackoff 	0
scalar IntersectionExampleScenario.node[18].nic.mac1609_4 	NumInternalContention 	0
scalar IntersectionExampleScenario.node[18].nic.mac1609_4 	totalBusyTime 	0
scalar IntersectionExampleScenario.node[18].veinsmobility 	startTime 	78
scalar IntersectionExampleScenario.node[18].veinsmobility 	totalTime 	51.5
scalar IntersectionExampleScenario.node[18].veinsmobility 	stopTime 	129.75
scalar IntersectionExampleScenario.node[18].veinsmobility 	minSpeed 	0
scalar IntersectionExampleScenario.node[18].veinsmobility 	maxSpeed 	15.375
scalar IntersectionExampleScenario.node[18].veinsmobility 	totalDistance 	553.37906646729
scalar IntersectionExampleScenario.node[18].veinsmobility 	totalCO2Emission 	142.19783930997
scalar IntersectionExampleScenario.node[20].appl 	VehicleRemoved 	0
scalar IntersectionExampleScenario.node[20].appl 	ArrivedAtDest 	1
scalar IntersectionExampleScenario.node[20].appl 	IntersectionEnterTime 	83
scalar IntersectionExampleScenario.node[20].appl 	IntersectionExitTime 	114.35497156097
scalar IntersectionExampleScenario.node[20].appl 	NumberOfCollisions 	0
scalar IntersectionExampleScenario.node[20].nic.phy80211p 	busyTime 	0
scalar IntersectionExampleScenario.node[20].nic.mac1609_4 	ReceivedUnicastPackets 	0
scalar IntersectionExampleScenario.node[20].nic.mac1609_4 	ReceivedBroadcasts 	0
scalar IntersectionExampleScenario.node[20].nic.mac1609_4 	SentPackets 	0
scalar IntersectionExampleScenario.node[20].nic.mac1609_4 	SNIRLostPackets 	0
scalar IntersectionExampleScenario.node[20].nic.mac1609_4 	RXTXLostPackets 	0
scalar IntersectionExampleScenario.node[20].nic.mac1609_4 	TotalLostPackets 	0
scalar IntersectionExampleScenario.node[20].nic.mac1609_4 	DroppedPacketsInMac 	0
scalar IntersectionExampleScenario.node[20].nic.mac1609_4 	TooLittleTime 	0
scalar IntersectionExampleScenario.node[20].nic.mac1609_4 	TimesIntoBackoff 	0
scalar IntersectionExampleScenario.node[20].nic.mac1609_4 	SlotsBackoff 	0
scalar IntersectionExampleScenario.node[20].nic.mac1609_4 	NumInternalContention 	0
scalar IntersectionExampleScenario.node[20].nic.mac1609_4 	totalBusyTime 	0
scalar IntersectionExampleScenario.node[20].veinsmobility 	startTime 	83
scalar IntersectionExampleScenario.node[20].veinsmobility 	totalTime 	49
scalar IntersectionExampleScenario.node[20].veinsmobility 	stopTime 	132.25
scalar IntersectionExampleScenario.node[20].veinsmobility 	minSpeed 	1.5291773080826
scalar IntersectionExampleScenario.node[20].veinsmobility 	maxSpeed 	14.625
scalar IntersectionExampleScenario.node[20].veinsmobility 	totalDistance 	546.6648624527
scalar IntersectionExampleScenario.node[20].veinsmobility 	totalCO2Emission 	129.85795870257
scalar IntersectionExampleScenario.node[24].appl 	VehicleRemoved 	0
scalar IntersectionExampleScenario.node[24].appl 	ArrivedAtDest 	1
scalar IntersectionExampleScenario.node[24].appl 	IntersectionEnterTime 	95.5
scalar IntersectionExampleScenario.node[24].appl 	IntersectionExitTime 	118.0903444002
scalar IntersectionExampleScenario.node[24].appl 	NumberOfCollisions 	0
scalar IntersectionExampleScenario.node[24].nic.phy80211p 	busyTime 	0
scalar IntersectionExampleScenario.node[24].nic.mac1609_4 	ReceivedUnicastPackets 	0
scalar IntersectionExampleScenario.node[24].nic.mac1609_4 	ReceivedBroadcasts 	0
scalar IntersectionExampleScenario.node[24].nic.mac1609_4 	SentPackets 	0
scalar IntersectionExampleScenario.node[24].nic.mac1609_4 	SNIRLostPackets 	0
scalar IntersectionExampleScenario.node[24].nic.mac1609_4 	RXTXLostPackets 	0
scalar IntersectionExampleScenario.node[24].nic.mac1609_4 	TotalLostPackets 	0
scalar IntersectionExampleScenario.node[24].nic.mac1609_4 	DroppedPacketsInMac 	0
scalar IntersectionExampleScenario.node[24].nic.mac1609_4 	TooLittleTime 	0
scalar IntersectionExampleScenario.node[24].nic.mac1609_4 	TimesIntoBackoff 	0
scalar IntersectionExampleScenario.node[24].nic.mac1609_4 	SlotsBackoff 	0
scalar IntersectionExampleScenario.node[24].nic.mac1609_4 	NumInternalContention 	0
scalar IntersectionExampleScenario.node[24].nic.mac1609_4 	totalBusyTime 	0
scalar IntersectionExampleScenario.node[24].veinsmobility 	startTime 	95.5
scalar IntersectionExampleScenario.node[24].veinsmobility 	totalTime 	38.5
scalar IntersectionExampleScenario.node[24].veinsmobility 	stopTime 	134.25
scalar IntersectionExampleScenario.node[24].veinsmobility 	minSpeed 	5.6500000953674
scalar IntersectionExampleScenario.node[24].veinsmobility 	maxSpeed 	16.27499961853
scalar IntersectionExampleScenario.node[24].veinsmobility 	totalDistance 	552.71161944857
scalar IntersectionExampleScenario.node[24].veinsmobility 	totalCO2Emission 	127.72201899914
scalar IntersectionExampleScenario.node[26].appl 	VehicleRemoved 	0
scalar IntersectionExampleScenario.node[26].appl 	ArrivedAtDest 	1
scalar IntersectionExampleScenario.node[26].appl 	IntersectionEnterTime 	98.75
scalar IntersectionExampleScenario.node[26].appl 	IntersectionExitTime 	123.12375088705
scalar IntersectionExampleScenario.node[26].appl 	NumberOfCollisions 	0
scalar IntersectionExampleScenario.node[26].nic.phy80211p 	busyTime 	0
scalar IntersectionExampleScenario.node[26].nic.mac1609_4 	ReceivedUnicastPackets 	0
scalar IntersectionExampleScenario.node[26].nic.mac1609_4 	ReceivedBroadcasts 	0
scalar IntersectionExampleScenario.node[26].nic.mac1609_4 	SentPackets 	0
scalar IntersectionExampleScenario.node[26].nic.mac1609_4 	SNIRLostPackets 	0
scalar IntersectionExampleScenario.node[26].nic.mac1609_4 	RXTXLostPackets 	0
scalar IntersectionExampleScenario.node[26].nic.mac1609_4 	TotalLostPackets 	0
scalar IntersectionExampleScenario.node[26].nic.mac1609_4 	DroppedPacketsInMac 	0
scalar IntersectionExampleScenario.node[26].nic.mac1609_4 	TooLittleTime 	0
scalar IntersectionExampleScenario.node[26].nic.mac1609_4 	TimesIntoBackoff 	0
scalar IntersectionExampleScenario.node[26].nic.mac1609_4 	SlotsBackoff 	0
scalar IntersectionExampleScenario.node[26].nic.mac1609_4 	NumInternalContention 	0
scalar IntersectionExampleScenario.node[26].nic.mac1609_4 	totalBusyTime 	0
scalar IntersectionExampleScenario.node[26].veinsmobility 	startTime 	98.75
scalar IntersectionExampleScenario.node[26].veinsmobility 	totalTime 	40.75
scalar IntersectionExampleScenario.node[26].veinsmobility 	stopTime 	139.75
scalar IntersectionExampleScenario.node[26].veinsmobility 	minSpeed 	5.6500000953674
scalar IntersectionExampleScenario.node[26].veinsmobility 	maxSpeed 	15.875
scalar IntersectionExampleScenario.node[26].veinsmobility 	totalDistance 	554.58589621518
scalar IntersectionExampleScenario.node[26].veinsmobility 	totalCO2Emission 	128.38592315327
scalar IntersectionExampleScenario.node[22].appl 	VehicleRemoved 	0
scalar IntersectionExampleScenario.node[22].appl 	ArrivedAtDest 	1
scalar IntersectionExampleScenario.node[22].appl 	IntersectionEnterTime 	90.75
scalar IntersectionExampleScenario.node[22].appl 	IntersectionExitTime 	127.58559033595
scalar IntersectionExampleScenario.node[22].appl 	NumberOfCollisions 	0
scalar IntersectionExampleScenario.node[22].nic.phy80211p 	busyTime 	0
scalar IntersectionExampleScenario.node[22].nic.mac1609_4 	ReceivedUnicastPackets 	0
scalar IntersectionExampleScenario.node[22].nic.mac1609_4 	ReceivedBroadcasts 	0
scalar IntersectionExampleScenario.node[22].nic.mac1609_4 	SentPackets 	0
scalar IntersectionExampleScenario.node[22].nic.mac1609_4 	SNIRLostPackets 	0
scalar IntersectionExampleScenario.node[22].nic.mac1609_4 	RXTXLostPackets 	0
scalar IntersectionExampleScenario.node[22].nic.mac1609_4 	TotalLostPackets 	0
scalar IntersectionExampleScenario.node[22].nic.mac1609_4 	DroppedPacketsInMac 	0
scalar IntersectionExampleScenario.node[22].nic.mac1609_4 	TooLittleTime 	0
scalar IntersectionExampleScenario.node[22].nic.mac1609_4 	TimesIntoBackoff 	0
scalar IntersectionExampleScenario.node[22].nic.mac1609_4 	SlotsBackoff 	0
scalar IntersectionExampleScenario.node[22].nic.mac1609_4 	NumInternalContention 	0
scalar IntersectionExampleScenario.node[22].nic.mac1609_4 	totalBusyTime 	0
scalar IntersectionExampleScenario.node[22].veinsmobility 	startTime 	90.75
scalar IntersectionExampleScenario.node[22].veinsmobility 	totalTime 	53
scalar IntersectionExampleScenario.node[22].veinsmobility 	stopTime 	144
scalar IntersectionExampleScenario.node[22].veinsmobility 	minSpeed 	0
scalar IntersectionExampleScenario.node[22].veinsmobility 	maxSpeed 	16.27499961853
scalar IntersectionExampleScenario.node[22].veinsmobility 	totalDistance 	542.93441678435
scalar IntersectionExampleScenario.node[22].veinsmobility 	totalCO2Emission 	149.30421637065
scalar IntersectionExampleScenario.node[25].appl 	VehicleRemoved 	0
scalar IntersectionExampleScenario.node[25].appl 	ArrivedAtDest 	1
scalar IntersectionExampleScenario.node[25].appl 	IntersectionEnterTime 	97.25
scalar IntersectionExampleScenario.node[25].appl 	IntersectionExitTime 	127.57137321364
scalar IntersectionExampleScenario.node[25].appl 	NumberOfCollisions 	0
scalar IntersectionExampleScenario.node[25].nic.phy80211p 	busyTime 	0
scalar IntersectionExampleScenario.node[25].nic.mac1609_4 	ReceivedUnicastPackets 	0
scalar IntersectionExampleScenario.node[25].nic.mac1609_4 	ReceivedBroadcasts 	0
scalar IntersectionExampleScenario.node[25].nic.mac1609_4 	SentPackets 	0
scalar IntersectionExampleScenario.node[25].nic.mac1609_4 	SNIRLostPackets 	0
scalar IntersectionExampleScenario.node[25].nic.mac1609_4 	RXTXLostPackets 	0
scalar IntersectionExampleScenario.node[25].nic.mac1609_4 	TotalLostPackets 	0
scalar IntersectionExampleScenario.node[25].nic.mac1609_4 	DroppedPacketsInMac 	0
scalar IntersectionExampleScenario.node[25].nic.mac1609_4 	TooLittleTime 	0
scalar IntersectionExampleScenario.node[25].nic.mac1609_4 	TimesIntoBackoff 	0
scalar IntersectionExampleScenario.node[25].nic.mac1609_4 	SlotsBackoff 	0
scalar IntersectionExampleScenario.node[25].nic.mac1609_4 	NumInternalContention 	0
scalar IntersectionExampleScenario.node[25].nic.mac1609_4 	totalBusyTime 	0
scalar IntersectionExampleScenario.node[25].veinsmobility 	startTime 	97.25
scalar IntersectionExampleScenario.node[25].veinsmobility 	totalTime 	47
scalar IntersectionExampleScenario.node[25].veinsmobility 	stopTime 	144.5
scalar IntersectionExampleScenario.node[25].veinsmobility 	minSpeed 	0
scalar IntersectionExampleScenario.node[25].veinsmobility 	maxSpeed 	15.875
scalar IntersectionExampleScenario.node[25].veinsmobility 	totalDistance 	546.14745236785
scalar IntersectionExampleScenario.node[25].veinsmobility 	totalCO2Emission 	140.01468789864
scalar IntersectionExampleScenario.node[23].appl 	VehicleRemoved 	0
scalar IntersectionExampleScenario.node[23].appl 	ArrivedAtDest 	1
scalar IntersectionExampleScenario.node[23].appl 	IntersectionEnterTime 	94.75
scalar IntersectionExampleScenario.node[23].appl 	IntersectionExitTime 	129.77965269732
scalar IntersectionExampleScenario.node[23].appl 	NumberOfCollisions 	0
scalar IntersectionExampleScenario.node[23].nic.phy80211p 	busyTime 	0
scalar IntersectionExampleScenario.node[23].nic.mac1609_4 	ReceivedUnicastPackets 	0
scalar IntersectionExampleScenario.node[23].nic.mac1609_4 	ReceivedBroadcasts 	0
scalar IntersectionExampleScenario.node[23].nic.mac1609_4 	SentPackets 	0
scalar IntersectionExampleScenario.node[23].nic.mac1609_4 	SNIRLostPackets 	0
scalar IntersectionExampleScenario.node[23].nic.mac1609_4 	RXTXLostPackets 	0
scalar IntersectionExampleScenario.node[23].nic.mac1609_4 	TotalLostPackets 	0
scalar IntersectionExampleScenario.node[23].nic.mac1609_4 	DroppedPacketsInMac 	0
scalar IntersectionExampleScenario.node[23].nic.mac1609_4 	TooLittleTime 	0
scalar IntersectionExampleScenario.node[23].nic.mac1609_4 	TimesIntoBackoff 	0
scalar IntersectionExampleScenario.node[23].nic.mac1609_4 	SlotsBackoff 	0
scalar IntersectionExampleScenario.node[23].nic.mac1609_4 	NumInternalContention 	0
scalar IntersectionExampleScenario.node[23].nic.mac1609_4 	totalBusyTime 	0
scalar IntersectionExampleScenario.node[23].veinsmobility 	startTime 	94.75
scalar IntersectionExampleScenario.node[23].veinsmobility 	totalTime 	50.25
scalar IntersectionExampleScenario.node[23].veinsmobility 	stopTime 	145.25
scalar IntersectionExampleScenario.node[23].veinsmobility 	minSpeed 	0
scalar IntersectionExampleScenario.node[23].veinsmobility 	maxSpeed 	16.579978942871
scalar IntersectionExampleScenario.node[23].veinsmobility 	totalDistance 	554.84737102962
scalar IntersectionExampleScenario.node[23].veinsmobility 	totalCO2Emission 	153.77841602134
scalar IntersectionExampleScenario.node[28].appl 	VehicleRemoved 	0
scalar IntersectionExampleScenario.node[28].appl 	ArrivedAtDest 	1
scalar IntersectionExampleScenario.node[28].appl 	IntersectionEnterTime 	100.5
scalar IntersectionExampleScenario.node[28].appl 	IntersectionExitTime 	129.25930662573
scalar IntersectionExampleScenario.node[28].appl 	NumberOfCollisions 	0
scalar IntersectionExampleScenario.node[28].nic.phy80211p 	busyTime 	0
scalar IntersectionExampleScenario.node[28].nic.mac1609_4 	ReceivedUnicastPackets 	0
scalar IntersectionExampleScenario.node[28].nic.mac1609_4 	ReceivedBroadcasts 	0
scalar IntersectionExampleScenario.node[28].nic.mac1609_4 	SentPackets 	0
scalar IntersectionExampleScenario.node[28].nic.mac1609_4 	SNIRLostPackets 	0
scalar IntersectionExampleScenario.node[28].nic.mac1609_4 	RXTXLostPackets 	0
scalar IntersectionExampleScenario.node[28].nic.mac1609_4 	TotalLostPackets 	0
scalar IntersectionExampleScenario.node[28].nic.mac1609_4 	DroppedPacketsInMac 	0
scalar IntersectionExampleScenario.node[28].nic.mac1609_4 	TooLittleTime 	0
scalar IntersectionExampleScenario.node[28].nic.mac1609_4 	TimesIntoBackoff 	0
scalar IntersectionExampleScenario.node[28].nic.mac1609_4 	SlotsBackoff 	0
scalar IntersectionExampleScenario.node[28].nic.mac1609_4 	NumInternalContention 	0
scalar IntersectionExampleScenario.node[28].nic.mac1609_4 	totalBusyTime 	0
scalar IntersectionExampleScenario.node[28].veinsmobility 	startTime 	100.5
scalar IntersectionExampleScenario.node[28].veinsmobility 	totalTime 	45
scalar IntersectionExampleScenario.node[28].veinsmobility 	stopTime 	145.75
scalar IntersectionExampleScenario.node[28].veinsmobility 	minSpeed 	1.90880382061
scalar IntersectionExampleScenario.node[28].veinsmobility 	maxSpeed 	15.5
scalar IntersectionExampleScenario.node[28].veinsmobility 	totalDistance 	563.72947692871
scalar IntersectionExampleScenario.node[28].veinsmobility 	totalCO2Emission 	133.6157551307
scalar IntersectionExampleScenario.node[27].appl 	VehicleRemoved 	0
scalar IntersectionExampleScenario.node[27].appl 	ArrivedAtDest 	1
scalar IntersectionExampleScenario.node[27].appl 	IntersectionEnterTime 	99
scalar IntersectionExampleScenario.node[27].appl 	IntersectionExitTime 	131.87092360938
scalar IntersectionExampleScenario.node[27].appl 	NumberOfCollisions 	0
scalar IntersectionExampleScenario.node[27].nic.phy80211p 	busyTime 	0
scalar IntersectionExampleScenario.node[27].nic.mac1609_4 	ReceivedUnicastPackets 	0
scalar IntersectionExampleScenario.node[27].nic.mac1609_4 	ReceivedBroadcasts 	0
scalar IntersectionExampleScenario.node[27].nic.mac1609_4 	SentPackets 	0
scalar IntersectionExampleScenario.node[27].nic.mac1609_4 	SNIRLostPackets 	0
scalar IntersectionExampleScenario.node[27].nic.mac1609_4 	RXTXLostPackets 	0
scalar IntersectionExampleScenario.node[27].nic.mac1609_4 	TotalLostPackets 	0
scalar IntersectionExampleScenario.node[27].nic.mac1609_4 	DroppedPacketsInMac 	0
scalar IntersectionExampleScenario.node[27].nic.mac1609_4 	TooLittleTime 	0
scalar IntersectionExampleScenario.node[27].nic.mac1609_4 	TimesIntoBackoff 	0
scalar IntersectionExampleScenario.node[27].nic.mac1609_4 	SlotsBackoff 	0
scalar IntersectionExampleScenario.node[27].nic.mac1609_4 	NumInternalContention 	0
scalar IntersectionExampleScenario.node[27].nic.mac1609_4 	totalBusyTime 	0
scalar IntersectionExampleScenario.node[27].veinsmobility 	startTime 	99
scalar IntersectionExampleScenario.node[27].veinsmobility 	totalTime 	49
scalar IntersectionExampleScenario.node[27].veinsmobility 	stopTime 	148.25
scalar IntersectionExampleScenario.node[27].veinsmobility 	minSpeed 	2.4187512397766
scalar IntersectionExampleScenario.node[27].veinsmobility 	maxSpeed 	15.64999961853
scalar IntersectionExampleScenario.node[27].veinsmobility 	totalDistance 	558.31122435938
scalar IntersectionExampleScenario.node[27].veinsmobility 	totalCO2Emission 	139.47456569675
scalar IntersectionExampleScenario.node[29].appl 	VehicleRemoved 	0
scalar IntersectionExampleScenario.node[29].appl 	ArrivedAtDest 	1
scalar IntersectionExampleScenario.node[29].appl 	IntersectionEnterTime 	105
scalar IntersectionExampleScenario.node[29].appl 	IntersectionExitTime 	133.27953876287
scalar IntersectionExampleScenario.node[29].appl 	NumberOfCollisions 	0
scalar IntersectionExampleScenario.node[29].nic.phy80211p 	busyTime 	0
scalar IntersectionExampleScenario.node[29].nic.mac1609_4 	ReceivedUnicastPackets 	0
scalar IntersectionExampleScenario.node[29].nic.mac1609_4 	ReceivedBroadcasts 	0
scalar IntersectionExampleScenario.node[29].nic.mac1609_4 	SentPackets 	0
scalar IntersectionExampleScenario.node[29].nic.mac1609_4 	SNIRLostPackets 	0
scalar IntersectionExampleScenario.node[29].nic.mac1609_4 	RXTXLostPackets 	0
scalar IntersectionExampleScenario.node[29].nic.mac1609_4 	TotalLostPackets 	0
scalar IntersectionExampleScenario.node[29].nic.mac1609_4 	DroppedPacketsInMac 	0
scalar IntersectionExampleScenario.node[29].nic.mac1609_4 	TooLittleTime 	0
scalar IntersectionExampleScenario.node[29].nic.mac1609_4 	TimesIntoBackoff 	0
scalar IntersectionExampleScenario.node[29].nic.mac1609_4 	SlotsBackoff 	0
scalar IntersectionExampleScenario.node[29].nic.mac1609_4 	NumInternalContention 	0
scalar IntersectionExampleScenario.node[29].nic.mac1609_4 	totalBusyTime 	0
scalar IntersectionExampleScenario.node[29].veinsmobility 	startTime 	105
scalar IntersectionExampleScenario.node[29].veinsmobility 	totalTime 	44.5
scalar IntersectionExampleScenario.node[29].veinsmobility 	stopTime 	149.75
scalar IntersectionExampleScenario.node[29].veinsmobility 	minSpeed 	5.5002908706665
scalar IntersectionExampleScenario.node[29].veinsmobility 	maxSpeed 	15.875
scalar IntersectionExampleScenario.node[29].veinsmobility 	totalDistance 	542.50047640173
scalar IntersectionExampleScenario.node[29].veinsmobility 	totalCO2Emission 	136.69381769299
scalar IntersectionExampleScenario.node[32].appl 	VehicleRemoved 	0
scalar IntersectionExampleScenario.node[32].appl 	ArrivedAtDest 	1
scalar IntersectionExampleScenario.node[32].appl 	IntersectionEnterTime 	110.75
scalar IntersectionExampleScenario.node[32].appl 	IntersectionExitTime 	135.03979359037
scalar IntersectionExampleScenario.node[32].appl 	NumberOfCollisions 	0
scalar IntersectionExampleScenario.node[32].nic.phy80211p 	busyTime 	0
scalar IntersectionExampleScenario.node[32].nic.mac1609_4 	ReceivedUnicastPackets 	0
scalar IntersectionExampleScenario.node[32].nic.mac1609_4 	ReceivedBroadcasts 	0
scalar IntersectionExampleScenario.node[32].nic.mac1609_4 	SentPackets 	0
scalar IntersectionExampleScenario.node[32].nic.mac1609_4 	SNIRLostPackets 	0
scalar IntersectionExampleScenario.node[32].nic.mac1609_4 	RXTXLostPackets 	0
scalar IntersectionExampleScenario.node[32].nic.mac1609_4 	TotalLostPackets 	0
scalar IntersectionExampleScenario.node[32].nic.mac1609_4 	DroppedPacketsInMac 	0
scalar IntersectionExampleScenario.node[32].nic.mac1609_4 	TooLittleTime 	0
scalar IntersectionExampleScenario.node[32].nic.mac1609_4 	TimesIntoBackoff 	0
scalar IntersectionExampleScenario.node[32].nic.mac1609_4 	SlotsBackoff 	0
scalar IntersectionExampleScenario.node[32].nic.mac1609_4 	NumInternalContention 	0
scalar IntersectionExampleScenario.node[32].nic.mac1609_4 	totalBusyTime 	0
scalar IntersectionExampleScenario.node[32].veinsmobility 	startTime 	110.75
scalar IntersectionExampleScenario.node[32].veinsmobility 	totalTime 	40.25
scalar IntersectionExampleScenario.node[32].veinsmobility 	stopTime 	151.25
scalar IntersectionExampleScenario.node[32].veinsmobility 	minSpeed 	5.6500000953674
scalar IntersectionExampleScenario.node[32].veinsmobility 	maxSpeed 	15.64999961853
scalar IntersectionExampleScenario.node[32].veinsmobility 	totalDistance 	553.98978424072
scalar IntersectionExampleScenario.node[32].veinsmobility 	totalCO2Emission 	126.77360450412
scalar IntersectionExampleScenario.node[34].appl 	VehicleRemoved 	0
scalar IntersectionExampleScenario.node[34].appl 	ArrivedAtDest 	1
scalar IntersectionExampleScenario.node[34].appl 	IntersectionEnterTime 	119.25
scalar IntersectionExampleScenario.node[34].appl 	IntersectionExitTime 	143.52272635486
scalar IntersectionExampleScenario.node[34].appl 	NumberOfCollisions 	0
scalar IntersectionExampleScenario.node[34].nic.phy80211p 	busyTime 	0
scalar IntersectionExampleScenario.node[34].nic.mac1609_4 	ReceivedUnicastPackets 	0
scalar IntersectionExampleScenario.node[34].nic.mac1609_4 	ReceivedBroadcasts 	0
scalar IntersectionExampleScenario.node[34].nic.mac1609_4 	SentPackets 	0
scalar IntersectionExampleScenario.node[34].nic.mac1609_4 	SNIRLostPackets 	0
scalar IntersectionExampleScenario.node[34].nic.mac1609_4 	RXTXLostPackets 	0
scalar IntersectionExampleScenario.node[34].nic.mac1609_4 	TotalLostPackets 	0
scalar IntersectionExampleScenario.node[34].nic.mac1609_4 	DroppedPacketsInMac 	0
scalar IntersectionExampleScenario.node[34].nic.mac1609_4 	TooLittleTime 	0
scalar IntersectionExampleScenario.node[34].nic.mac1609_4 	TimesIntoBackoff 	0
scalar IntersectionExampleScenario.node[34].nic.mac1609_4 	SlotsBackoff 	0
scalar IntersectionExampleScenario.node[34].nic.mac1609_4 	NumInternalContention 	0
scalar IntersectionExampleScenario.node[34].nic.mac1609_4 	totalBusyTime 	0
scalar IntersectionExampleScenario.node[34].veinsmobility 	startTime 	119.25
scalar IntersectionExampleScenario.node[34].veinsmobility 	totalTime 	40.25
scalar IntersectionExampleScenario.node[34].veinsmobility 	stopTime 	159.75
scalar IntersectionExampleScenario.node[34].veinsmobility 	minSpeed 	5.6500000953674
scalar IntersectionExampleScenario.node[34].veinsmobility 	maxSpeed 	15.675666809082
scalar IntersectionExampleScenario.node[34].veinsmobility 	totalDistance 	553.94146728516
scalar IntersectionExampleScenario.node[34].veinsmobility 	totalCO2Emission 	129.13194210419
scalar IntersectionExampleScenario.node[30].appl 	VehicleRemoved 	0
scalar IntersectionExampleScenario.node[30].appl 	ArrivedAtDest 	1
scalar IntersectionExampleScenario.node[30].appl 	IntersectionEnterTime 	105.25
scalar IntersectionExampleScenario.node[30].appl 	IntersectionExitTime 	144.28922784908
scalar IntersectionExampleScenario.node[30].appl 	NumberOfCollisions 	0
scalar IntersectionExampleScenario.node[30].nic.phy80211p 	busyTime 	0
scalar IntersectionExampleScenario.node[30].nic.mac1609_4 	ReceivedUnicastPackets 	0
scalar IntersectionExampleScenario.node[30].nic.mac1609_4 	ReceivedBroadcasts 	0
scalar IntersectionExampleScenario.node[30].nic.mac1609_4 	SentPackets 	0
scalar IntersectionExampleScenario.node[30].nic.mac1609_4 	SNIRLostPackets 	0
scalar IntersectionExampleScenario.node[30].nic.mac1609_4 	RXTXLostPackets 	0
scalar IntersectionExampleScenario.node[30].nic.mac1609_4 	TotalLostPackets 	0
scalar IntersectionExampleScenario.node[30].nic.mac1609_4 	DroppedPacketsInMac 	0
scalar IntersectionExampleScenario.node[30].nic.mac1609_4 	TooLittleTime 	0
scalar IntersectionExampleScenario.node[30].nic.mac1609_4 	TimesIntoBackoff 	0
scalar IntersectionExampleScenario.node[30].nic.mac1609_4 	SlotsBackoff 	0
scalar IntersectionExampleScenario.node[30].nic.mac1609_4 	NumInternalContention 	0
scalar IntersectionExampleScenario.node[30].nic.mac1609_4 	totalBusyTime 	0
scalar IntersectionExampleScenario.node[30].veinsmobility 	startTime 	105.25
scalar IntersectionExampleScenario.node[30].veinsmobility 	totalTime 	55
scalar IntersectionExampleScenario.node[30].veinsmobility 	stopTime 	160.5
scalar IntersectionExampleScenario.node[30].veinsmobility 	minSpeed 	0
scalar IntersectionExampleScenario.node[30].veinsmobility 	maxSpeed 	15.64999961853
scalar IntersectionExampleScenario.node[30].veinsmobility 	totalDistance 	548.31459154239
scalar IntersectionExampleScenario.node[30].veinsmobility 	totalCO2Emission 	147.92058729
scalar IntersectionExampleScenario.node[31].appl 	VehicleRemoved 	0
scalar IntersectionExampleScenario.node[31].appl 	ArrivedAtDest 	1
scalar IntersectionExampleScenario.node[31].appl 	IntersectionEnterTime 	109.75
scalar IntersectionExampleScenario.node[31].appl 	IntersectionExitTime 	145.0995932302
scalar IntersectionExampleScenario.node[31].appl 	NumberOfCollisions 	0
scalar IntersectionExampleScenario.node[31].nic.phy80211p 	busyTime 	0
scalar IntersectionExampleScenario.node[31].nic.mac1609_4 	ReceivedUnicastPackets 	0
scalar IntersectionExampleScenario.node[31].nic.mac1609_4 	ReceivedBroadcasts 	0
scalar IntersectionExampleScenario.node[31].nic.mac1609_4 	SentPackets 	0
scalar IntersectionExampleScenario.node[31].nic.mac1609_4 	SNIRLostPackets 	0
scalar IntersectionExampleScenario.node[31].nic.mac1609_4 	RXTXLostPackets 	0
scalar IntersectionExampleScenario.node[31].nic.mac1609_4 	TotalLostPackets 	0
scalar IntersectionExampleScenario.node[31].nic.mac1609_4 	DroppedPacketsInMac 	0
scalar IntersectionExampleScenario.node[31].nic.mac1609_4 	TooLittleTime 	0
scalar IntersectionExampleScenario.node[31].nic.mac1609_4 	TimesIntoBackoff 	0
scalar IntersectionExampleScenario.node[31].nic.mac1609_4 	SlotsBackoff 	0
scalar IntersectionExampleScenario.node[31].nic.mac1609_4 	NumInternalContention 	0
scalar IntersectionExampleScenario.node[31].nic.mac1609_4 	totalBusyTime 	0
scalar IntersectionExampleScenario.node[31].veinsmobility 	startTime 	109.75
scalar IntersectionExampleScenario.node[31].veinsmobility 	totalTime 	51.75
scalar IntersectionExampleScenario.node[31].veinsmobility 	stopTime 	161.75
scalar IntersectionExampleScenario.node[31].veinsmobility 	minSpeed 	0
scalar IntersectionExampleScenario.node[31].veinsmobility 	maxSpeed 	15.875
scalar IntersectionExampleScenario.node[31].veinsmobility 	totalDistance 	545.48272795539
scalar IntersectionExampleScenario.node[31].veinsmobility 	totalCO2Emission 	145.92359876564
scalar IntersectionExampleScenario.node[35].appl 	VehicleRemoved 	0
scalar IntersectionExampleScenario.node[35].appl 	ArrivedAtDest 	1
scalar IntersectionExampleScenario.node[35].appl 	IntersectionEnterTime 	120.5
scalar IntersectionExampleScenario.node[35].appl 	IntersectionExitTime 	146.50026302115
scalar IntersectionExampleScenario.node[35].appl 	NumberOfCollisions 	0
scalar IntersectionExampleScenario.node[35].nic.phy80211p 	busyTime 	0
scalar IntersectionExampleScenario.node[35].nic.mac1609_4 	ReceivedUnicastPackets 	0
scalar IntersectionExampleScenario.node[35].nic.mac1609_4 	ReceivedBroadcasts 	0
scalar IntersectionExampleScenario.node[35].nic.mac1609_4 	SentPackets 	0
scalar IntersectionExampleScenario.node[35].nic.mac1609_4 	SNIRLostPackets 	0
scalar IntersectionExampleScenario.node[35].nic.mac1609_4 	RXTXLostPackets 	0
scalar IntersectionExampleScenario.node[35].nic.mac1609_4 	TotalLostPackets 	0
scalar IntersectionExampleScenario.node[35].nic.mac1609_4 	DroppedPacketsInMac 	0
scalar IntersectionExampleScenario.node[35].nic.mac1609_4 	TooLittleTime 	0
scalar IntersectionExampleScenario.node[35].nic.mac1609_4 	TimesIntoBackoff 	0
scalar IntersectionExampleScenario.node[35].nic.mac1609_4 	SlotsBackoff 	0
scalar IntersectionExampleScenario.node[35].nic.mac1609_4 	NumInternalContention 	0
scalar IntersectionExampleScenario.node[35].nic.mac1609_4 	totalBusyTime 	0
scalar IntersectionExampleScenario.node[35].veinsmobility 	startTime 	120.5
scalar IntersectionExampleScenario.node[35].veinsmobility 	totalTime 	43.5
scalar IntersectionExampleScenario.node[35].veinsmobility 	stopTime 	164.25
scalar IntersectionExampleScenario.node[35].veinsmobility 	minSpeed 	5.6500000953674
scalar IntersectionExampleScenario.node[35].veinsmobility 	maxSpeed 	15.02499961853
scalar IntersectionExampleScenario.node[35].veinsmobility 	totalDistance 	572.78805095412
scalar IntersectionExampleScenario.node[35].veinsmobility 	totalCO2Emission 	131.48379807597
scalar IntersectionExampleScenario.node[33].appl 	VehicleRemoved 	0
scalar IntersectionExampleScenario.node[33].appl 	ArrivedAtDest 	1
scalar IntersectionExampleScenario.node[33].appl 	IntersectionEnterTime 	119.25
scalar IntersectionExampleScenario.node[33].appl 	IntersectionExitTime 	147.54653613554
scalar IntersectionExampleScenario.node[33].appl 	NumberOfCollisions 	0
scalar IntersectionExampleScenario.node[33].nic.phy80211p 	busyTime 	0
scalar IntersectionExampleScenario.node[33].nic.mac1609_4 	ReceivedUnicastPackets 	0
scalar IntersectionExampleScenario.node[33].nic.mac1609_4 	ReceivedBroadcasts 	0
scalar IntersectionExampleScenario.node[33].nic.mac1609_4 	SentPackets 	0
scalar IntersectionExampleScenario.node[33].nic.mac1609_4 	SNIRLostPackets 	0
scalar IntersectionExampleScenario.node[33].nic.mac1609_4 	RXTXLostPackets 	0
scalar IntersectionExampleScenario.node[33].nic.mac1609_4 	TotalLostPackets 	0
scalar IntersectionExampleScenario.node[33].nic.mac1609_4 	DroppedPacketsInMac 	0
scalar IntersectionExampleScenario.node[33].nic.mac1609_4 	TooLittleTime 	0
scalar IntersectionExampleScenario.node[33].nic.mac1609_4 	TimesIntoBackoff 	0
scalar IntersectionExampleScenario.node[33].nic.mac1609_4 	SlotsBackoff 	0
scalar IntersectionExampleScenario.node[33].nic.mac1609_4 	NumInternalContention 	0
scalar IntersectionExampleScenario.node[33].nic.mac1609_4 	totalBusyTime 	0
scalar IntersectionExampleScenario.node[33].veinsmobility 	startTime 	119.25
scalar IntersectionExampleScenario.node[33].veinsmobility 	totalTime 	46
scalar IntersectionExampleScenario.node[33].veinsmobility 	stopTime 	165.5
scalar IntersectionExampleScenario.node[33].veinsmobility 	minSpeed 	4.5708870887756
scalar IntersectionExampleScenario.node[33].veinsmobility 	maxSpeed 	15.64999961853
scalar IntersectionExampleScenario.node[33].veinsmobility 	totalDistance 	545.92125511311
scalar IntersectionExampleScenario.node[33].veinsmobility 	totalCO2Emission 	136.41033073518
scalar IntersectionExampleScenario.node[36].appl 	VehicleRemoved 	0
scalar IntersectionExampleScenario.node[36].appl 	ArrivedAtDest 	1
scalar IntersectionExampleScenario.node[36].appl 	IntersectionEnterTime 	121.25
scalar IntersectionExampleScenario.node[36].appl 	IntersectionExitTime 	149.76437869115
scalar IntersectionExampleScenario.node[36].appl 	NumberOfCollisions 	0
scalar IntersectionExampleScenario.node[36].nic.phy80211p 	busyTime 	0
scalar IntersectionExampleScenario.node[36].nic.mac1609_4 	ReceivedUnicastPackets 	0
scalar IntersectionExampleScenario.node[36].nic.mac1609_4 	ReceivedBroadcasts 	0
scalar IntersectionExampleScenario.node[36].nic.mac1609_4 	SentPackets 	0
scalar IntersectionExampleScenario.node[36].nic.mac1609_4 	SNIRLostPackets 	0
scalar IntersectionExampleScenario.node[36].nic.mac1609_4 	RXTXLostPackets 	0
scalar IntersectionExampleScenario.node[36].nic.mac1609_4 	TotalLostPackets 	0
scalar IntersectionExampleScenario.node[36].nic.mac1609_4 	DroppedPacketsInMac 	0
scalar IntersectionExampleScenario.node[36].nic.mac1609_4 	TooLittleTime 	0
scalar IntersectionExampleScenario.node[36].nic.mac1609_4 	TimesIntoBackoff 	0
scalar IntersectionExampleScenario.node[36].nic.mac1609_4 	SlotsBackoff 	0
scalar IntersectionExampleScenario.node[36].nic.mac1609_4 	NumInternalContention 	0
scalar IntersectionExampleScenario.node[36].nic.mac1609_4 	totalBusyTime 	0
scalar IntersectionExampleScenario.node[36].veinsmobility 	startTime 	121.25
scalar IntersectionExampleScenario.node[36].veinsmobility 	totalTime 	45.25
scalar IntersectionExampleScenario.node[36].veinsmobility 	stopTime 	166.75
scalar IntersectionExampleScenario.node[36].veinsmobility 	minSpeed 	4.9272570610046
scalar IntersectionExampleScenario.node[36].veinsmobility 	maxSpeed 	15.983916282654
scalar IntersectionExampleScenario.node[36].veinsmobility 	totalDistance 	563.93041233519
scalar IntersectionExampleScenario.node[36].veinsmobility 	totalCO2Emission 	142.53696478572
scalar IntersectionExampleScenario.node[42].appl 	VehicleRemoved 	0
scalar IntersectionExampleScenario.node[42].appl 	ArrivedAtDest 	1
scalar IntersectionExampleScenario.node[42].appl 	IntersectionEnterTime 	134.25
scalar IntersectionExampleScenario.node[42].appl 	IntersectionExitTime 	157.2884228561
scalar IntersectionExampleScenario.node[42].appl 	NumberOfCollisions 	0
scalar IntersectionExampleScenario.node[42].nic.phy80211p 	busyTime 	0
scalar IntersectionExampleScenario.node[42].nic.mac1609_4 	ReceivedUnicastPackets 	0
scalar IntersectionExampleScenario.node[42].nic.mac1609_4 	ReceivedBroadcasts 	0
scalar IntersectionExampleScenario.node[42].nic.mac1609_4 	SentPackets 	0
scalar IntersectionExampleScenario.node[42].nic.mac1609_4 	SNIRLostPackets 	0
scalar IntersectionExampleScenario.node[42].nic.mac1609_4 	RXTXLostPackets 	0
scalar IntersectionExampleScenario.node[42].nic.mac1609_4 	TotalLostPackets 	0
scalar IntersectionExampleScenario.node[42].nic.mac1609_4 	DroppedPacketsInMac 	0
scalar IntersectionExampleScenario.node[42].nic.mac1609_4 	TooLittleTime 	0
scalar IntersectionExampleScenario.node[42].nic.mac1609_4 	TimesIntoBackoff 	0
scalar IntersectionExampleScenario.node[42].nic.mac1609_4 	SlotsBackoff 	0
scalar IntersectionExampleScenario.node[42].nic.mac1609_4 	NumInternalContention 	0
scalar IntersectionExampleScenario.node[42].nic.mac1609_4 	totalBusyTime 	0
scalar IntersectionExampleScenario.node[42].veinsmobility 	startTime 	134.25
scalar IntersectionExampleScenario.node[42].veinsmobility 	totalTime 	39.25
scalar IntersectionExampleScenario.node[42].veinsmobility 	stopTime 	173.75
scalar IntersectionExampleScenario.node[42].veinsmobility 	minSpeed 	5.6500000953674
scalar IntersectionExampleScenario.node[42].veinsmobility 	maxSpeed 	16.27499961853
scalar IntersectionExampleScenario.node[42].veinsmobility 	totalDistance 	546.17164003102
scalar IntersectionExampleScenario.node[42].veinsmobility 	totalCO2Emission 	131.07825032848
scalar IntersectionExampleScenario.node[37].appl 	VehicleRemoved 	0
scalar IntersectionExampleScenario.node[37].appl 	ArrivedAtDest 	1
scalar IntersectionExampleScenario.node[37].appl 	IntersectionEnterTime 	121.25
scalar IntersectionExampleScenario.node[37].appl 	IntersectionExitTime 	159.30676031709
scalar IntersectionExampleScenario.node[37].appl 	NumberOfCollisions 	0
scalar IntersectionExampleScenario.node[37].nic.phy80211p 	busyTime 	0
scalar IntersectionExampleScenario.node[37].nic.mac1609_4 	ReceivedUnicastPackets 	0
scalar IntersectionExampleScenario.node[37].nic.mac1609_4 	ReceivedBroadcasts 	0
scalar IntersectionExampleScenario.node[37].nic.mac1609_4 	SentPackets 	0
scalar IntersectionExampleScenario.node[37].nic.mac1609_4 	SNIRLostPackets 	0
scalar IntersectionExampleScenario.node[37].nic.mac1609_4 	RXTXLostPackets 	0
scalar IntersectionExampleScenario.node[37].nic.mac1609_4 	TotalLostPackets 	0
scalar IntersectionExampleScenario.node[37].nic.mac1609_4 	DroppedPacketsInMac 	0
scalar IntersectionExampleScenario.node[37].nic.mac1609_4 	TooLittleTime 	0
scalar IntersectionExampleScenario.node[37].nic.mac1609_4 	TimesIntoBackoff 	0
scalar IntersectionExampleScenario.node[37].nic.mac1609_4 	SlotsBackoff 	0
scalar IntersectionExampleScenario.node[37].nic.mac1609_4 	NumInternalContention 	0
scalar IntersectionExampleScenario.node[37].nic.mac1609_4 	totalBusyTime 	0
scalar IntersectionExampleScenario.node[37].veinsmobility 	startTime 	121.25
scalar IntersectionExampleScenario.node[37].veinsmobility 	totalTime 	54.25
scalar IntersectionExampleScenario.node[37].veinsmobility 	stopTime 	175.75
scalar IntersectionExampleScenario.node[37].veinsmobility 	minSpeed 	0
scalar IntersectionExampleScenario.node[37].veinsmobility 	maxSpeed 	15.375
scalar IntersectionExampleScenario.node[37].veinsmobility 	totalDistance 	549.86316026797
scalar IntersectionExampleScenario.node[37].veinsmobility 	totalCO2Emission 	145.46538960196
scalar IntersectionExampleScenario.node[41].appl 	VehicleRemoved 	0
scalar IntersectionExampleScenario.node[41].appl 	ArrivedAtDest 	1
scalar IntersectionExampleScenario.node[41].appl 	IntersectionEnterTime 	128.5
scalar IntersectionExampleScenario.node[41].appl 	IntersectionExitTime 	160.37291693021
scalar IntersectionExampleScenario.node[41].appl 	NumberOfCollisions 	0
scalar IntersectionExampleScenario.node[41].nic.phy80211p 	busyTime 	0
scalar IntersectionExampleScenario.node[41].nic.mac1609_4 	ReceivedUnicastPackets 	0
scalar IntersectionExampleScenario.node[41].nic.mac1609_4 	ReceivedBroadcasts 	0
scalar IntersectionExampleScenario.node[41].nic.mac1609_4 	SentPackets 	0
scalar IntersectionExampleScenario.node[41].nic.mac1609_4 	SNIRLostPackets 	0
scalar IntersectionExampleScenario.node[41].nic.mac1609_4 	RXTXLostPackets 	0
scalar IntersectionExampleScenario.node[41].nic.mac1609_4 	TotalLostPackets 	0
scalar IntersectionExampleScenario.node[41].nic.mac1609_4 	DroppedPacketsInMac 	0
scalar IntersectionExampleScenario.node[41].nic.mac1609_4 	TooLittleTime 	0
scalar IntersectionExampleScenario.node[41].nic.mac1609_4 	TimesIntoBackoff 	0
[...]
scalar IntersectionExampleScenario.node[537].veinsmobility 	totalCO2Emission 	142.94736310322
scalar IntersectionExampleScenario.node[538].appl 	VehicleRemoved 	0
scalar IntersectionExampleScenario.node[538].appl 	ArrivedAtDest 	0
scalar IntersectionExampleScenario.node[538].appl 	IntersectionEnterTime 	1758.75
scalar IntersectionExampleScenario.node[538].appl 	IntersectionExitTime 	1788.5056192199
scalar IntersectionExampleScenario.node[538].appl 	NumberOfCollisions 	0
scalar IntersectionExampleScenario.node[538].nic.phy80211p 	busyTime 	0
scalar IntersectionExampleScenario.node[538].nic.mac1609_4 	ReceivedUnicastPackets 	0
scalar IntersectionExampleScenario.node[538].nic.mac1609_4 	ReceivedBroadcasts 	0
scalar IntersectionExampleScenario.node[538].nic.mac1609_4 	SentPackets 	0
scalar IntersectionExampleScenario.node[538].nic.mac1609_4 	SNIRLostPackets 	0
scalar IntersectionExampleScenario.node[538].nic.mac1609_4 	RXTXLostPackets 	0
scalar IntersectionExampleScenario.node[538].nic.mac1609_4 	TotalLostPackets 	0
scalar IntersectionExampleScenario.node[538].nic.mac1609_4 	DroppedPacketsInMac 	0
scalar IntersectionExampleScenario.node[538].nic.mac1609_4 	TooLittleTime 	0
scalar IntersectionExampleScenario.node[538].nic.mac1609_4 	TimesIntoBackoff 	0
scalar IntersectionExampleScenario.node[538].nic.mac1609_4 	SlotsBackoff 	0
scalar IntersectionExampleScenario.node[538].nic.mac1609_4 	NumInternalContention 	0
scalar IntersectionExampleScenario.node[538].nic.mac1609_4 	totalBusyTime 	0
scalar IntersectionExampleScenario.node[538].veinsmobility 	startTime 	1758.75
scalar IntersectionExampleScenario.node[538].veinsmobility 	totalTime 	41.25
scalar IntersectionExampleScenario.node[538].veinsmobility 	stopTime 	1800
scalar IntersectionExampleScenario.node[538].veinsmobility 	minSpeed 	2.7851550579071
scalar IntersectionExampleScenario.node[538].veinsmobility 	maxSpeed 	15.5
scalar IntersectionExampleScenario.node[538].veinsmobility 	totalDistance 	482.29023742676
scalar IntersectionExampleScenario.node[538].veinsmobility 	totalCO2Emission 	121.89134385134
scalar IntersectionExampleScenario.node[539].appl 	VehicleRemoved 	0
scalar IntersectionExampleScenario.node[539].appl 	ArrivedAtDest 	0
scalar IntersectionExampleScenario.node[539].appl 	IntersectionEnterTime 	1761
scalar IntersectionExampleScenario.node[539].appl 	IntersectionExitTime 	1789.1154471902
scalar IntersectionExampleScenario.node[539].appl 	NumberOfCollisions 	0
scalar IntersectionExampleScenario.node[539].nic.phy80211p 	busyTime 	0
scalar IntersectionExampleScenario.node[539].nic.mac1609_4 	ReceivedUnicastPackets 	0
scalar IntersectionExampleScenario.node[539].nic.mac1609_4 	ReceivedBroadcasts 	0
scalar IntersectionExampleScenario.node[539].nic.mac1609_4 	SentPackets 	0
scalar IntersectionExampleScenario.node[539].nic.mac1609_4 	SNIRLostPackets 	0
scalar IntersectionExampleScenario.node[539].nic.mac1609_4 	RXTXLostPackets 	0
scalar IntersectionExampleScenario.node[539].nic.mac1609_4 	TotalLostPackets 	0
scalar IntersectionExampleScenario.node[539].nic.mac1609_4 	DroppedPacketsInMac 	0
scalar IntersectionExampleScenario.node[539].nic.mac1609_4 	TooLittleTime 	0
scalar IntersectionExampleScenario.node[539].nic.mac1609_4 	TimesIntoBackoff 	0
scalar IntersectionExampleScenario.node[539].nic.mac1609_4 	SlotsBackoff 	0
scalar IntersectionExampleScenario.node[539].nic.mac1609_4 	NumInternalContention 	0
scalar IntersectionExampleScenario.node[539].nic.mac1609_4 	totalBusyTime 	0
scalar IntersectionExampleScenario.node[539].veinsmobility 	startTime 	1761
scalar IntersectionExampleScenario.node[539].veinsmobility 	totalTime 	39
scalar IntersectionExampleScenario.node[539].veinsmobility 	stopTime 	1800
scalar IntersectionExampleScenario.node[539].veinsmobility 	minSpeed 	0
scalar IntersectionExampleScenario.node[539].veinsmobility 	maxSpeed 	15.64999961853
scalar IntersectionExampleScenario.node[539].veinsmobility 	totalDistance 	469.14435512282
scalar IntersectionExampleScenario.node[539].veinsmobility 	totalCO2Emission 	125.73896893805
scalar IntersectionExampleScenario.node[540].appl 	VehicleRemoved 	0
scalar IntersectionExampleScenario.node[540].appl 	ArrivedAtDest 	0
scalar IntersectionExampleScenario.node[540].appl 	IntersectionEnterTime 	1761.75
scalar IntersectionExampleScenario.node[540].appl 	IntersectionExitTime 	1789.0509826055
scalar IntersectionExampleScenario.node[540].appl 	NumberOfCollisions 	0
scalar IntersectionExampleScenario.node[540].nic.phy80211p 	busyTime 	0
scalar IntersectionExampleScenario.node[540].nic.mac1609_4 	ReceivedUnicastPackets 	0
scalar IntersectionExampleScenario.node[540].nic.mac1609_4 	ReceivedBroadcasts 	0
scalar IntersectionExampleScenario.node[540].nic.mac1609_4 	SentPackets 	0
scalar IntersectionExampleScenario.node[540].nic.mac1609_4 	SNIRLostPackets 	0
scalar IntersectionExampleScenario.node[540].nic.mac1609_4 	RXTXLostPackets 	0
scalar IntersectionExampleScenario.node[540].nic.mac1609_4 	TotalLostPackets 	0
scalar IntersectionExampleScenario.node[540].nic.mac1609_4 	DroppedPacketsInMac 	0
scalar IntersectionExampleScenario.node[540].nic.mac1609_4 	TooLittleTime 	0
scalar IntersectionExampleScenario.node[540].nic.mac1609_4 	TimesIntoBackoff 	0
scalar IntersectionExampleScenario.node[540].nic.mac1609_4 	SlotsBackoff 	0
scalar IntersectionExampleScenario.node[540].nic.mac1609_4 	NumInternalContention 	0
scalar IntersectionExampleScenario.node[540].nic.mac1609_4 	totalBusyTime 	0
scalar IntersectionExampleScenario.node[540].veinsmobility 	startTime 	1761.75
scalar IntersectionExampleScenario.node[540].veinsmobility 	totalTime 	38.25
scalar IntersectionExampleScenario.node[540].veinsmobility 	stopTime 	1800
scalar IntersectionExampleScenario.node[540].veinsmobility 	minSpeed 	2.5370626449585
scalar IntersectionExampleScenario.node[540].veinsmobility 	maxSpeed 	16.125
scalar IntersectionExampleScenario.node[540].veinsmobility 	totalDistance 	502.34436798096
scalar IntersectionExampleScenario.node[540].veinsmobility 	totalCO2Emission 	129.00094198129
scalar IntersectionExampleScenario.node[541].appl 	VehicleRemoved 	0
scalar IntersectionExampleScenario.node[541].appl 	ArrivedAtDest 	0
scalar IntersectionExampleScenario.node[541].appl 	IntersectionEnterTime 	1762.25
scalar IntersectionExampleScenario.node[541].appl 	IntersectionExitTime 	1791.0086262753
scalar IntersectionExampleScenario.node[541].appl 	NumberOfCollisions 	0
scalar IntersectionExampleScenario.node[541].nic.phy80211p 	busyTime 	0
scalar IntersectionExampleScenario.node[541].nic.mac1609_4 	ReceivedUnicastPackets 	0
scalar IntersectionExampleScenario.node[541].nic.mac1609_4 	ReceivedBroadcasts 	0
scalar IntersectionExampleScenario.node[541].nic.mac1609_4 	SentPackets 	0
scalar IntersectionExampleScenario.node[541].nic.mac1609_4 	SNIRLostPackets 	0
scalar IntersectionExampleScenario.node[541].nic.mac1609_4 	RXTXLostPackets 	0
scalar IntersectionExampleScenario.node[541].nic.mac1609_4 	TotalLostPackets 	0
scalar IntersectionExampleScenario.node[541].nic.mac1609_4 	DroppedPacketsInMac 	0
scalar IntersectionExampleScenario.node[541].nic.mac1609_4 	TooLittleTime 	0
scalar IntersectionExampleScenario.node[541].nic.mac1609_4 	TimesIntoBackoff 	0
scalar IntersectionExampleScenario.node[541].nic.mac1609_4 	SlotsBackoff 	0
scalar IntersectionExampleScenario.node[541].nic.mac1609_4 	NumInternalContention 	0
scalar IntersectionExampleScenario.node[541].nic.mac1609_4 	totalBusyTime 	0
scalar IntersectionExampleScenario.node[541].veinsmobility 	startTime 	1762.25
scalar IntersectionExampleScenario.node[541].veinsmobility 	totalTime 	37.75
scalar IntersectionExampleScenario.node[541].veinsmobility 	stopTime 	1800
scalar IntersectionExampleScenario.node[541].veinsmobility 	minSpeed 	4.4455399513245
scalar IntersectionExampleScenario.node[541].veinsmobility 	maxSpeed 	15.375
scalar IntersectionExampleScenario.node[541].veinsmobility 	totalDistance 	448.03315121603
scalar IntersectionExampleScenario.node[541].veinsmobility 	totalCO2Emission 	125.47085924488
scalar IntersectionExampleScenario.node[542].appl 	VehicleRemoved 	0
scalar IntersectionExampleScenario.node[542].appl 	ArrivedAtDest 	0
scalar IntersectionExampleScenario.node[542].appl 	IntersectionEnterTime 	1785.75
scalar IntersectionExampleScenario.node[542].appl 	IntersectionExitTime 	-1
scalar IntersectionExampleScenario.node[542].appl 	NumberOfCollisions 	0
scalar IntersectionExampleScenario.node[542].nic.phy80211p 	busyTime 	0
scalar IntersectionExampleScenario.node[542].nic.mac1609_4 	ReceivedUnicastPackets 	0
scalar IntersectionExampleScenario.node[542].nic.mac1609_4 	ReceivedBroadcasts 	0
scalar IntersectionExampleScenario.node[542].nic.mac1609_4 	SentPackets 	0
scalar IntersectionExampleScenario.node[542].nic.mac1609_4 	SNIRLostPackets 	0
scalar IntersectionExampleScenario.node[542].nic.mac1609_4 	RXTXLostPackets 	0
scalar IntersectionExampleScenario.node[542].nic.mac1609_4 	TotalLostPackets 	0
scalar IntersectionExampleScenario.node[542].nic.mac1609_4 	DroppedPacketsInMac 	0
scalar IntersectionExampleScenario.node[542].nic.mac1609_4 	TooLittleTime 	0
scalar IntersectionExampleScenario.node[542].nic.mac1609_4 	TimesIntoBackoff 	0
scalar IntersectionExampleScenario.node[542].nic.mac1609_4 	SlotsBackoff 	0
scalar IntersectionExampleScenario.node[542].nic.mac1609_4 	NumInternalContention 	0
scalar IntersectionExampleScenario.node[542].nic.mac1609_4 	totalBusyTime 	0
scalar IntersectionExampleScenario.node[542].veinsmobility 	startTime 	1785.75
scalar IntersectionExampleScenario.node[542].veinsmobility 	totalTime 	14.25
scalar IntersectionExampleScenario.node[542].veinsmobility 	stopTime 	1800
scalar IntersectionExampleScenario.node[542].veinsmobility 	minSpeed 	5.6500000953674
scalar IntersectionExampleScenario.node[542].veinsmobility 	maxSpeed 	15.64999961853
scalar IntersectionExampleScenario.node[542].veinsmobility 	totalDistance 	196.62060546875
scalar IntersectionExampleScenario.node[542].veinsmobility 	totalCO2Emission 	53.853878414233
scalar IntersectionExampleScenario.node[543].appl 	VehicleRemoved 	0
scalar IntersectionExampleScenario.node[543].appl 	ArrivedAtDest 	0
scalar IntersectionExampleScenario.node[543].appl 	IntersectionEnterTime 	1789.5
scalar IntersectionExampleScenario.node[543].appl 	IntersectionExitTime 	-1
scalar IntersectionExampleScenario.node[543].appl 	NumberOfCollisions 	0
scalar IntersectionExampleScenario.node[543].nic.phy80211p 	busyTime 	0
scalar IntersectionExampleScenario.node[543].nic.mac1609_4 	ReceivedUnicastPackets 	0
scalar IntersectionExampleScenario.node[543].nic.mac1609_4 	ReceivedBroadcasts 	0
scalar IntersectionExampleScenario.node[543].nic.mac1609_4 	SentPackets 	0
scalar IntersectionExampleScenario.node[543].nic.mac1609_4 	SNIRLostPackets 	0
scalar IntersectionExampleScenario.node[543].nic.mac1609_4 	RXTXLostPackets 	0
scalar IntersectionExampleScenario.node[543].nic.mac1609_4 	TotalLostPackets 	0
scalar IntersectionExampleScenario.node[543].nic.mac1609_4 	DroppedPacketsInMac 	0
scalar IntersectionExampleScenario.node[543].nic.mac1609_4 	TooLittleTime 	0
scalar IntersectionExampleScenario.node[543].nic.mac1609_4 	TimesIntoBackoff 	0
scalar IntersectionExampleScenario.node[543].nic.mac1609_4 	SlotsBackoff 	0
scalar IntersectionExampleScenario.node[543].nic.mac1609_4 	NumInternalContention 	0
scalar IntersectionExampleScenario.node[543].nic.mac1609_4 	totalBusyTime 	0
scalar IntersectionExampleScenario.node[543].veinsmobility 	startTime 	1789.5
scalar IntersectionExampleScenario.node[543].veinsmobility 	totalTime 	10.5
scalar IntersectionExampleScenario.node[543].veinsmobility 	stopTime 	1800
scalar IntersectionExampleScenario.node[543].veinsmobility 	minSpeed 	5.6500000953674
scalar IntersectionExampleScenario.node[543].veinsmobility 	maxSpeed 	15.64999961853
scalar IntersectionExampleScenario.node[543].veinsmobility 	totalDistance 	139.50091552734
scalar IntersectionExampleScenario.node[543].veinsmobility 	totalCO2Emission 	45.711341748805
scalar IntersectionExampleScenario.node[544].appl 	VehicleRemoved 	0
scalar IntersectionExampleScenario.node[544].appl 	ArrivedAtDest 	0
scalar IntersectionExampleScenario.node[544].appl 	IntersectionEnterTime 	1792.5
scalar IntersectionExampleScenario.node[544].appl 	IntersectionExitTime 	-1
scalar IntersectionExampleScenario.node[544].appl 	NumberOfCollisions 	0
scalar IntersectionExampleScenario.node[544].nic.phy80211p 	busyTime 	0
scalar IntersectionExampleScenario.node[544].nic.mac1609_4 	ReceivedUnicastPackets 	0
scalar IntersectionExampleScenario.node[544].nic.mac1609_4 	ReceivedBroadcasts 	0
scalar IntersectionExampleScenario.node[544].nic.mac1609_4 	SentPackets 	0
scalar IntersectionExampleScenario.node[544].nic.mac1609_4 	SNIRLostPackets 	0
scalar IntersectionExampleScenario.node[544].nic.mac1609_4 	RXTXLostPackets 	0
scalar IntersectionExampleScenario.node[544].nic.mac1609_4 	TotalLostPackets 	0
scalar IntersectionExampleScenario.node[544].nic.mac1609_4 	DroppedPacketsInMac 	0
scalar IntersectionExampleScenario.node[544].nic.mac1609_4 	TooLittleTime 	0
scalar IntersectionExampleScenario.node[544].nic.mac1609_4 	TimesIntoBackoff 	0
scalar IntersectionExampleScenario.node[544].nic.mac1609_4 	SlotsBackoff 	0
scalar IntersectionExampleScenario.node[544].nic.mac1609_4 	NumInternalContention 	0
scalar IntersectionExampleScenario.node[544].nic.mac1609_4 	totalBusyTime 	0
scalar IntersectionExampleScenario.node[544].veinsmobility 	startTime 	1792.5
scalar IntersectionExampleScenario.node[544].veinsmobility 	totalTime 	7.5
scalar IntersectionExampleScenario.node[544].veinsmobility 	stopTime 	1800
scalar IntersectionExampleScenario.node[544].veinsmobility 	minSpeed 	5.6500000953674
scalar IntersectionExampleScenario.node[544].veinsmobility 	maxSpeed 	15.64999961853
scalar IntersectionExampleScenario.node[544].veinsmobility 	totalDistance 	93.878173828125
scalar IntersectionExampleScenario.node[544].veinsmobility 	totalCO2Emission 	39.354801970694
scalar IntersectionExampleScenario.node[545].appl 	VehicleRemoved 	0
scalar IntersectionExampleScenario.node[545].appl 	ArrivedAtDest 	0
scalar IntersectionExampleScenario.node[545].appl 	IntersectionEnterTime 	1796.75
scalar IntersectionExampleScenario.node[545].appl 	IntersectionExitTime 	-1
scalar IntersectionExampleScenario.node[545].appl 	NumberOfCollisions 	0
scalar IntersectionExampleScenario.node[545].nic.phy80211p 	busyTime 	0
scalar IntersectionExampleScenario.node[545].nic.mac1609_4 	ReceivedUnicastPackets 	0
scalar IntersectionExampleScenario.node[545].nic.mac1609_4 	ReceivedBroadcasts 	0
scalar IntersectionExampleScenario.node[545].nic.mac1609_4 	SentPackets 	0
scalar IntersectionExampleScenario.node[545].nic.mac1609_4 	SNIRLostPackets 	0
scalar IntersectionExampleScenario.node[545].nic.mac1609_4 	RXTXLostPackets 	0
scalar IntersectionExampleScenario.node[545].nic.mac1609_4 	TotalLostPackets 	0
scalar IntersectionExampleScenario.node[545].nic.mac1609_4 	DroppedPacketsInMac 	0
scalar IntersectionExampleScenario.node[545].nic.mac1609_4 	TooLittleTime 	0
scalar IntersectionExampleScenario.node[545].nic.mac1609_4 	TimesIntoBackoff 	0
scalar IntersectionExampleScenario.node[545].nic.mac1609_4 	SlotsBackoff 	0
scalar IntersectionExampleScenario.node[545].nic.mac1609_4 	NumInternalContention 	0
scalar IntersectionExampleScenario.node[545].nic.mac1609_4 	totalBusyTime 	0
scalar IntersectionExampleScenario.node[545].veinsmobility 	startTime 	1796.75
scalar IntersectionExampleScenario.node[545].veinsmobility 	totalTime 	3.25
scalar IntersectionExampleScenario.node[545].veinsmobility 	stopTime 	1800
scalar IntersectionExampleScenario.node[545].veinsmobility 	minSpeed 	5.6500000953674
scalar IntersectionExampleScenario.node[545].veinsmobility 	maxSpeed 	9.4900074005127
scalar IntersectionExampleScenario.node[545].veinsmobility 	totalDistance 	23.592590332031
scalar IntersectionExampleScenario.node[545].veinsmobility 	totalCO2Emission 	12.390871030584
scalar IntersectionExampleScenario.node[546].appl 	VehicleRemoved 	0
scalar IntersectionExampleScenario.node[546].appl 	ArrivedAtDest 	0
scalar IntersectionExampleScenario.node[546].appl 	IntersectionEnterTime 	1797.25
scalar IntersectionExampleScenario.node[546].appl 	IntersectionExitTime 	-1
scalar IntersectionExampleScenario.node[546].appl 	NumberOfCollisions 	0
scalar IntersectionExampleScenario.node[546].nic.phy80211p 	busyTime 	0
scalar IntersectionExampleScenario.node[546].nic.mac1609_4 	ReceivedUnicastPackets 	0
scalar IntersectionExampleScenario.node[546].nic.mac1609_4 	ReceivedBroadcasts 	0
scalar IntersectionExampleScenario.node[546].nic.mac1609_4 	SentPackets 	0
scalar IntersectionExampleScenario.node[546].nic.mac1609_4 	SNIRLostPackets 	0
scalar IntersectionExampleScenario.node[546].nic.mac1609_4 	RXTXLostPackets 	0
scalar IntersectionExampleScenario.node[546].nic.mac1609_4 	TotalLostPackets 	0
scalar IntersectionExampleScenario.node[546].nic.mac1609_4 	DroppedPacketsInMac 	0
scalar IntersectionExampleScenario.node[546].nic.mac1609_4 	TooLittleTime 	0
scalar IntersectionExampleScenario.node[546].nic.mac1609_4 	TimesIntoBackoff 	0
scalar IntersectionExampleScenario.node[546].nic.mac1609_4 	SlotsBackoff 	0
scalar IntersectionExampleScenario.node[546].nic.mac1609_4 	NumInternalContention 	0
scalar IntersectionExampleScenario.node[546].nic.mac1609_4 	totalBusyTime 	0
scalar IntersectionExampleScenario.node[546].veinsmobility 	startTime 	1797.25
scalar IntersectionExampleScenario.node[546].veinsmobility 	totalTime 	2.75
scalar IntersectionExampleScenario.node[546].veinsmobility 	stopTime 	1800
scalar IntersectionExampleScenario.node[546].veinsmobility 	minSpeed 	5.6500000953674
scalar IntersectionExampleScenario.node[546].veinsmobility 	maxSpeed 	11.89999961853
scalar IntersectionExampleScenario.node[546].veinsmobility 	totalDistance 	23.271911621094
scalar IntersectionExampleScenario.node[546].veinsmobility 	totalCO2Emission 	17.752607434053
scalar IntersectionExampleScenario.node[547].appl 	VehicleRemoved 	0
scalar IntersectionExampleScenario.node[547].appl 	ArrivedAtDest 	0
scalar IntersectionExampleScenario.node[547].appl 	IntersectionEnterTime 	1797.5
scalar IntersectionExampleScenario.node[547].appl 	IntersectionExitTime 	-1
scalar IntersectionExampleScenario.node[547].appl 	NumberOfCollisions 	0
scalar IntersectionExampleScenario.node[547].nic.phy80211p 	busyTime 	0
scalar IntersectionExampleScenario.node[547].nic.mac1609_4 	ReceivedUnicastPackets 	0
scalar IntersectionExampleScenario.node[547].nic.mac1609_4 	ReceivedBroadcasts 	0
scalar IntersectionExampleScenario.node[547].nic.mac1609_4 	SentPackets 	0
scalar IntersectionExampleScenario.node[547].nic.mac1609_4 	SNIRLostPackets 	0
scalar IntersectionExampleScenario.node[547].nic.mac1609_4 	RXTXLostPackets 	0
scalar IntersectionExampleScenario.node[547].nic.mac1609_4 	TotalLostPackets 	0
scalar IntersectionExampleScenario.node[547].nic.mac1609_4 	DroppedPacketsInMac 	0
scalar IntersectionExampleScenario.node[547].nic.mac1609_4 	TooLittleTime 	0
scalar IntersectionExampleScenario.node[547].nic.mac1609_4 	TimesIntoBackoff 	0
scalar IntersectionExampleScenario.node[547].nic.mac1609_4 	SlotsBackoff 	0
scalar IntersectionExampleScenario.node[547].nic.mac1609_4 	NumInternalContention 	0
scalar IntersectionExampleScenario.node[547].nic.mac1609_4 	totalBusyTime 	0
scalar IntersectionExampleScenario.node[547].veinsmobility 	startTime 	1797.5
scalar IntersectionExampleScenario.node[547].veinsmobility 	totalTime 	2.5
scalar IntersectionExampleScenario.node[547].veinsmobility 	stopTime 	1800
scalar IntersectionExampleScenario.node[547].veinsmobility 	minSpeed 	5.6500000953674
scalar IntersectionExampleScenario.node[547].veinsmobility 	maxSpeed 	11.27499961853
scalar IntersectionExampleScenario.node[547].veinsmobility 	totalDistance 	20.453125
scalar IntersectionExampleScenario.node[547].veinsmobility 	totalCO2Emission 	15.500237724595
