version 2
run nodebug-9-20200605-20:08:19-14344
attr configname nodebug
attr datetime 20200605-20:08:19
attr experiment nodebug
attr inifile omnetpp.ini
attr iterationvars ""
attr iterationvars2 $repetition=9
attr measurement ""
attr network "\"org.car2x.veins.modules.application.ExtTraCIScenarioManagerLaunchd.IntersectionExampleScenario\""
attr processid 14344
attr repetition 9
attr replication #9
attr resultdir results
attr runnumber 9
attr seedset 9
param **.coreDebug false
param **.debug false
param *.**.nic.mac1609_4.bitrate 18Mbps
param *.**.nic.mac1609_4.txPower 20mW
param *.**.nic.mac1609_4.useServiceChannel false
param *.**.nic.phy80211p.analogueModels "xmldoc(\"config.xml\")"
param *.**.nic.phy80211p.decider "xmldoc(\"config.xml\")"
param *.**.nic.phy80211p.sensitivity -89dBm
param *.**.nic.phy80211p.thermalNoise -110dBm
param *.**.nic.phy80211p.usePropagationDelay true
param *.**.nic.phy80211p.useThermalNoise true
param *.annotations.draw false
param *.connectionManager.alpha 2.0
param *.connectionManager.carrierFrequency "5.890e9 Hz"
param *.connectionManager.pMax 20mW
param *.connectionManager.sat -89dBm
param *.connectionManager.sendDirect true
param *.manager.autoShutdown true
param *.manager.host "\"localhost\""
param *.manager.launchConfig "xmldoc(\"paramics.launchd.xml\")"
param *.manager.margin 25
param *.manager.moduleDisplayString "\"\""
param *.manager.moduleName "\"node\""
param *.manager.moduleType "\"org.car2x.veins.nodes.Car\""
param *.manager.port 9999
param *.manager.updateInterval 250ms
param *.node[*0].veinsmobility.accidentCount 0
param *.node[*0].veinsmobility.accidentDuration 30s
param *.node[*0].veinsmobility.accidentStart 75s
param *.node[*].appl.LiderSelectZoneRadio 55.0
param *.node[*].appl.ShareDataZoneRadio 110.0
param *.node[*].appl.TiempoSemaforo 30.0
param *.node[*].appl.beaconInterval 1s
param *.node[*].appl.beaconPriority 3
param *.node[*].appl.dataOnSch false
param *.node[*].appl.dataPriority 2
param *.node[*].appl.debug false
param *.node[*].appl.headerLength "256 bit"
param *.node[*].appl.maxOffset 0.005s
param *.node[*].appl.sendBeacons false
param *.node[*].appl.sendData true
param *.node[*].applType "\"Dummy\""
param *.node[*].mobilityType "\"TraCIMobility\""
param *.node[*].mobilityType.debug true
param *.node[*].veinsmobility.x 0
param *.node[*].veinsmobility.y 0
param *.node[*].veinsmobility.z 1.895
param *.node[*].veinsmobilityType "\"org.car2x.veins.modules.mobility.traci.TraCIMobility\""
param *.node[*].veinsmobilityType.debug true
param *.playgroundSizeX 8500m
param *.playgroundSizeY 8500m
param *.playgroundSizeZ 50m
param *.world.use2D false
param *.world.useTorus false

scalar IntersectionExampleScenario.node[0].appl 	VehicleRemoved 	0
scalar IntersectionExampleScenario.node[0].appl 	ArrivedAtDest 	1
scalar IntersectionExampleScenario.node[0].appl 	IntersectionEnterTime 	1
scalar IntersectionExampleScenario.node[0].appl 	IntersectionExitTime 	35.266728691611
scalar IntersectionExampleScenario.node[0].appl 	NumberOfCollisions 	0
scalar IntersectionExampleScenario.node[0].nic.phy80211p 	busyTime 	0
scalar IntersectionExampleScenario.node[0].nic.mac1609_4 	ReceivedUnicastPackets 	0
scalar IntersectionExampleScenario.node[0].nic.mac1609_4 	ReceivedBroadcasts 	0
scalar IntersectionExampleScenario.node[0].nic.mac1609_4 	SentPackets 	0
scalar IntersectionExampleScenario.node[0].nic.mac1609_4 	SNIRLostPackets 	0
scalar IntersectionExampleScenario.node[0].nic.mac1609_4 	RXTXLostPackets 	0
scalar IntersectionExampleScenario.node[0].nic.mac1609_4 	TotalLostPackets 	0
scalar IntersectionExampleScenario.node[0].nic.mac1609_4 	DroppedPacketsInMac 	0
scalar IntersectionExampleScenario.node[0].nic.mac1609_4 	TooLittleTime 	0
scalar IntersectionExampleScenario.node[0].nic.mac1609_4 	TimesIntoBackoff 	0
scalar IntersectionExampleScenario.node[0].nic.mac1609_4 	SlotsBackoff 	0
scalar IntersectionExampleScenario.node[0].nic.mac1609_4 	NumInternalContention 	0
scalar IntersectionExampleScenario.node[0].nic.mac1609_4 	totalBusyTime 	0
scalar IntersectionExampleScenario.node[0].veinsmobility 	startTime 	1
scalar IntersectionExampleScenario.node[0].veinsmobility 	totalTime 	50
scalar IntersectionExampleScenario.node[0].veinsmobility 	stopTime 	51.25
scalar IntersectionExampleScenario.node[0].veinsmobility 	minSpeed 	0
scalar IntersectionExampleScenario.node[0].veinsmobility 	maxSpeed 	16
scalar IntersectionExampleScenario.node[0].veinsmobility 	totalDistance 	549.90855516543
scalar IntersectionExampleScenario.node[0].veinsmobility 	totalCO2Emission 	144.87866334589
scalar IntersectionExampleScenario.node[1].appl 	VehicleRemoved 	0
scalar IntersectionExampleScenario.node[1].appl 	ArrivedAtDest 	1
scalar IntersectionExampleScenario.node[1].appl 	IntersectionEnterTime 	1.5
scalar IntersectionExampleScenario.node[1].appl 	IntersectionExitTime 	37.531012646679
scalar IntersectionExampleScenario.node[1].appl 	NumberOfCollisions 	0
scalar IntersectionExampleScenario.node[1].nic.phy80211p 	busyTime 	0
scalar IntersectionExampleScenario.node[1].nic.mac1609_4 	ReceivedUnicastPackets 	0
scalar IntersectionExampleScenario.node[1].nic.mac1609_4 	ReceivedBroadcasts 	0
scalar IntersectionExampleScenario.node[1].nic.mac1609_4 	SentPackets 	0
scalar IntersectionExampleScenario.node[1].nic.mac1609_4 	SNIRLostPackets 	0
scalar IntersectionExampleScenario.node[1].nic.mac1609_4 	RXTXLostPackets 	0
scalar IntersectionExampleScenario.node[1].nic.mac1609_4 	TotalLostPackets 	0
scalar IntersectionExampleScenario.node[1].nic.mac1609_4 	DroppedPacketsInMac 	0
scalar IntersectionExampleScenario.node[1].nic.mac1609_4 	TooLittleTime 	0
scalar IntersectionExampleScenario.node[1].nic.mac1609_4 	TimesIntoBackoff 	0
scalar IntersectionExampleScenario.node[1].nic.mac1609_4 	SlotsBackoff 	0
scalar IntersectionExampleScenario.node[1].nic.mac1609_4 	NumInternalContention 	0
scalar IntersectionExampleScenario.node[1].nic.mac1609_4 	totalBusyTime 	0
scalar IntersectionExampleScenario.node[1].veinsmobility 	startTime 	1.5
scalar IntersectionExampleScenario.node[1].veinsmobility 	totalTime 	52.75
scalar IntersectionExampleScenario.node[1].veinsmobility 	stopTime 	54.5
scalar IntersectionExampleScenario.node[1].veinsmobility 	minSpeed 	0
scalar IntersectionExampleScenario.node[1].veinsmobility 	maxSpeed 	15.25
scalar IntersectionExampleScenario.node[1].veinsmobility 	totalDistance 	543.1290450509
scalar IntersectionExampleScenario.node[1].veinsmobility 	totalCO2Emission 	142.32900304766
scalar IntersectionExampleScenario.node[2].appl 	VehicleRemoved 	0
scalar IntersectionExampleScenario.node[2].appl 	ArrivedAtDest 	1
scalar IntersectionExampleScenario.node[2].appl 	IntersectionEnterTime 	2.25
scalar IntersectionExampleScenario.node[2].appl 	IntersectionExitTime 	39.109819885343
scalar IntersectionExampleScenario.node[2].appl 	NumberOfCollisions 	0
scalar IntersectionExampleScenario.node[2].nic.phy80211p 	busyTime 	0
scalar IntersectionExampleScenario.node[2].nic.mac1609_4 	ReceivedUnicastPackets 	0
scalar IntersectionExampleScenario.node[2].nic.mac1609_4 	ReceivedBroadcasts 	0
scalar IntersectionExampleScenario.node[2].nic.mac1609_4 	SentPackets 	0
scalar IntersectionExampleScenario.node[2].nic.mac1609_4 	SNIRLostPackets 	0
scalar IntersectionExampleScenario.node[2].nic.mac1609_4 	RXTXLostPackets 	0
scalar IntersectionExampleScenario.node[2].nic.mac1609_4 	TotalLostPackets 	0
scalar IntersectionExampleScenario.node[2].nic.mac1609_4 	DroppedPacketsInMac 	0
scalar IntersectionExampleScenario.node[2].nic.mac1609_4 	TooLittleTime 	0
scalar IntersectionExampleScenario.node[2].nic.mac1609_4 	TimesIntoBackoff 	0
scalar IntersectionExampleScenario.node[2].nic.mac1609_4 	SlotsBackoff 	0
scalar IntersectionExampleScenario.node[2].nic.mac1609_4 	NumInternalContention 	0
scalar IntersectionExampleScenario.node[2].nic.mac1609_4 	totalBusyTime 	0
scalar IntersectionExampleScenario.node[2].veinsmobility 	startTime 	2.25
scalar IntersectionExampleScenario.node[2].veinsmobility 	totalTime 	53
scalar IntersectionExampleScenario.node[2].veinsmobility 	stopTime 	55.5
scalar IntersectionExampleScenario.node[2].veinsmobility 	minSpeed 	0
scalar IntersectionExampleScenario.node[2].veinsmobility 	maxSpeed 	15.375
scalar IntersectionExampleScenario.node[2].veinsmobility 	totalDistance 	572.476151345
scalar IntersectionExampleScenario.node[2].veinsmobility 	totalCO2Emission 	147.05154732133
scalar IntersectionExampleScenario.node[3].appl 	VehicleRemoved 	0
scalar IntersectionExampleScenario.node[3].appl 	ArrivedAtDest 	1
scalar IntersectionExampleScenario.node[3].appl 	IntersectionEnterTime 	11
scalar IntersectionExampleScenario.node[3].appl 	IntersectionExitTime 	39.071594977693
scalar IntersectionExampleScenario.node[3].appl 	NumberOfCollisions 	0
scalar IntersectionExampleScenario.node[3].nic.phy80211p 	busyTime 	0
scalar IntersectionExampleScenario.node[3].nic.mac1609_4 	ReceivedUnicastPackets 	0
scalar IntersectionExampleScenario.node[3].nic.mac1609_4 	ReceivedBroadcasts 	0
scalar IntersectionExampleScenario.node[3].nic.mac1609_4 	SentPackets 	0
scalar IntersectionExampleScenario.node[3].nic.mac1609_4 	SNIRLostPackets 	0
scalar IntersectionExampleScenario.node[3].nic.mac1609_4 	RXTXLostPackets 	0
scalar IntersectionExampleScenario.node[3].nic.mac1609_4 	TotalLostPackets 	0
scalar IntersectionExampleScenario.node[3].nic.mac1609_4 	DroppedPacketsInMac 	0
scalar IntersectionExampleScenario.node[3].nic.mac1609_4 	TooLittleTime 	0
scalar IntersectionExampleScenario.node[3].nic.mac1609_4 	TimesIntoBackoff 	0
scalar IntersectionExampleScenario.node[3].nic.mac1609_4 	SlotsBackoff 	0
scalar IntersectionExampleScenario.node[3].nic.mac1609_4 	NumInternalContention 	0
scalar IntersectionExampleScenario.node[3].nic.mac1609_4 	totalBusyTime 	0
scalar IntersectionExampleScenario.node[3].veinsmobility 	startTime 	11
scalar IntersectionExampleScenario.node[3].veinsmobility 	totalTime 	44.5
scalar IntersectionExampleScenario.node[3].veinsmobility 	stopTime 	55.75
scalar IntersectionExampleScenario.node[3].veinsmobility 	minSpeed 	5.1799697875977
scalar IntersectionExampleScenario.node[3].veinsmobility 	maxSpeed 	16.313739776611
scalar IntersectionExampleScenario.node[3].veinsmobility 	totalDistance 	550.55034092159
scalar IntersectionExampleScenario.node[3].veinsmobility 	totalCO2Emission 	148.97859341289
scalar IntersectionExampleScenario.node[5].appl 	VehicleRemoved 	0
scalar IntersectionExampleScenario.node[5].appl 	ArrivedAtDest 	1
scalar IntersectionExampleScenario.node[5].appl 	IntersectionEnterTime 	13.75
scalar IntersectionExampleScenario.node[5].appl 	IntersectionExitTime 	50.55820855897
scalar IntersectionExampleScenario.node[5].appl 	NumberOfCollisions 	0
scalar IntersectionExampleScenario.node[5].nic.phy80211p 	busyTime 	0
scalar IntersectionExampleScenario.node[5].nic.mac1609_4 	ReceivedUnicastPackets 	0
scalar IntersectionExampleScenario.node[5].nic.mac1609_4 	ReceivedBroadcasts 	0
scalar IntersectionExampleScenario.node[5].nic.mac1609_4 	SentPackets 	0
scalar IntersectionExampleScenario.node[5].nic.mac1609_4 	SNIRLostPackets 	0
scalar IntersectionExampleScenario.node[5].nic.mac1609_4 	RXTXLostPackets 	0
scalar IntersectionExampleScenario.node[5].nic.mac1609_4 	TotalLostPackets 	0
scalar IntersectionExampleScenario.node[5].nic.mac1609_4 	DroppedPacketsInMac 	0
scalar IntersectionExampleScenario.node[5].nic.mac1609_4 	TooLittleTime 	0
scalar IntersectionExampleScenario.node[5].nic.mac1609_4 	TimesIntoBackoff 	0
scalar IntersectionExampleScenario.node[5].nic.mac1609_4 	SlotsBackoff 	0
scalar IntersectionExampleScenario.node[5].nic.mac1609_4 	NumInternalContention 	0
scalar IntersectionExampleScenario.node[5].nic.mac1609_4 	totalBusyTime 	0
scalar IntersectionExampleScenario.node[5].veinsmobility 	startTime 	13.75
scalar IntersectionExampleScenario.node[5].veinsmobility 	totalTime 	54.25
scalar IntersectionExampleScenario.node[5].veinsmobility 	stopTime 	68.25
scalar IntersectionExampleScenario.node[5].veinsmobility 	minSpeed 	0
scalar IntersectionExampleScenario.node[5].veinsmobility 	maxSpeed 	15.02499961853
scalar IntersectionExampleScenario.node[5].veinsmobility 	totalDistance 	545.64540006072
scalar IntersectionExampleScenario.node[5].veinsmobility 	totalCO2Emission 	140.60508476115
scalar IntersectionExampleScenario.node[4].appl 	VehicleRemoved 	0
scalar IntersectionExampleScenario.node[4].appl 	ArrivedAtDest 	1
scalar IntersectionExampleScenario.node[4].appl 	IntersectionEnterTime 	12.75
scalar IntersectionExampleScenario.node[4].appl 	IntersectionExitTime 	50.587803427159
scalar IntersectionExampleScenario.node[4].appl 	NumberOfCollisions 	0
scalar IntersectionExampleScenario.node[4].nic.phy80211p 	busyTime 	0
scalar IntersectionExampleScenario.node[4].nic.mac1609_4 	ReceivedUnicastPackets 	0
scalar IntersectionExampleScenario.node[4].nic.mac1609_4 	ReceivedBroadcasts 	0
scalar IntersectionExampleScenario.node[4].nic.mac1609_4 	SentPackets 	0
scalar IntersectionExampleScenario.node[4].nic.mac1609_4 	SNIRLostPackets 	0
scalar IntersectionExampleScenario.node[4].nic.mac1609_4 	RXTXLostPackets 	0
scalar IntersectionExampleScenario.node[4].nic.mac1609_4 	TotalLostPackets 	0
scalar IntersectionExampleScenario.node[4].nic.mac1609_4 	DroppedPacketsInMac 	0
scalar IntersectionExampleScenario.node[4].nic.mac1609_4 	TooLittleTime 	0
scalar IntersectionExampleScenario.node[4].nic.mac1609_4 	TimesIntoBackoff 	0
scalar IntersectionExampleScenario.node[4].nic.mac1609_4 	SlotsBackoff 	0
scalar IntersectionExampleScenario.node[4].nic.mac1609_4 	NumInternalContention 	0
scalar IntersectionExampleScenario.node[4].nic.mac1609_4 	totalBusyTime 	0
scalar IntersectionExampleScenario.node[4].veinsmobility 	startTime 	12.75
scalar IntersectionExampleScenario.node[4].veinsmobility 	totalTime 	55.25
scalar IntersectionExampleScenario.node[4].veinsmobility 	stopTime 	68.25
scalar IntersectionExampleScenario.node[4].veinsmobility 	minSpeed 	0
scalar IntersectionExampleScenario.node[4].veinsmobility 	maxSpeed 	15.02499961853
scalar IntersectionExampleScenario.node[4].veinsmobility 	totalDistance 	545.64543820769
scalar IntersectionExampleScenario.node[4].veinsmobility 	totalCO2Emission 	141.57808476115
scalar IntersectionExampleScenario.node[9].appl 	VehicleRemoved 	0
scalar IntersectionExampleScenario.node[9].appl 	ArrivedAtDest 	1
scalar IntersectionExampleScenario.node[9].appl 	IntersectionEnterTime 	30.5
scalar IntersectionExampleScenario.node[9].appl 	IntersectionExitTime 	53.557941839797
scalar IntersectionExampleScenario.node[9].appl 	NumberOfCollisions 	0
scalar IntersectionExampleScenario.node[9].nic.phy80211p 	busyTime 	0
scalar IntersectionExampleScenario.node[9].nic.mac1609_4 	ReceivedUnicastPackets 	0
scalar IntersectionExampleScenario.node[9].nic.mac1609_4 	ReceivedBroadcasts 	0
scalar IntersectionExampleScenario.node[9].nic.mac1609_4 	SentPackets 	0
scalar IntersectionExampleScenario.node[9].nic.mac1609_4 	SNIRLostPackets 	0
scalar IntersectionExampleScenario.node[9].nic.mac1609_4 	RXTXLostPackets 	0
scalar IntersectionExampleScenario.node[9].nic.mac1609_4 	TotalLostPackets 	0
scalar IntersectionExampleScenario.node[9].nic.mac1609_4 	DroppedPacketsInMac 	0
scalar IntersectionExampleScenario.node[9].nic.mac1609_4 	TooLittleTime 	0
scalar IntersectionExampleScenario.node[9].nic.mac1609_4 	TimesIntoBackoff 	0
scalar IntersectionExampleScenario.node[9].nic.mac1609_4 	SlotsBackoff 	0
scalar IntersectionExampleScenario.node[9].nic.mac1609_4 	NumInternalContention 	0
scalar IntersectionExampleScenario.node[9].nic.mac1609_4 	totalBusyTime 	0
scalar IntersectionExampleScenario.node[9].veinsmobility 	startTime 	30.5
scalar IntersectionExampleScenario.node[9].veinsmobility 	totalTime 	39.5
scalar IntersectionExampleScenario.node[9].veinsmobility 	stopTime 	70.25
scalar IntersectionExampleScenario.node[9].veinsmobility 	minSpeed 	5.6500000953674
scalar IntersectionExampleScenario.node[9].veinsmobility 	maxSpeed 	15.5
scalar IntersectionExampleScenario.node[9].veinsmobility 	totalDistance 	523.0983581543
scalar IntersectionExampleScenario.node[9].veinsmobility 	totalCO2Emission 	127.7498192746
scalar IntersectionExampleScenario.node[6].appl 	VehicleRemoved 	0
scalar IntersectionExampleScenario.node[6].appl 	ArrivedAtDest 	1
scalar IntersectionExampleScenario.node[6].appl 	IntersectionEnterTime 	24
scalar IntersectionExampleScenario.node[6].appl 	IntersectionExitTime 	53.021204532881
scalar IntersectionExampleScenario.node[6].appl 	NumberOfCollisions 	0
scalar IntersectionExampleScenario.node[6].nic.phy80211p 	busyTime 	0
scalar IntersectionExampleScenario.node[6].nic.mac1609_4 	ReceivedUnicastPackets 	0
scalar IntersectionExampleScenario.node[6].nic.mac1609_4 	ReceivedBroadcasts 	0
scalar IntersectionExampleScenario.node[6].nic.mac1609_4 	SentPackets 	0
scalar IntersectionExampleScenario.node[6].nic.mac1609_4 	SNIRLostPackets 	0
scalar IntersectionExampleScenario.node[6].nic.mac1609_4 	RXTXLostPackets 	0
scalar IntersectionExampleScenario.node[6].nic.mac1609_4 	TotalLostPackets 	0
scalar IntersectionExampleScenario.node[6].nic.mac1609_4 	DroppedPacketsInMac 	0
scalar IntersectionExampleScenario.node[6].nic.mac1609_4 	TooLittleTime 	0
scalar IntersectionExampleScenario.node[6].nic.mac1609_4 	TimesIntoBackoff 	0
scalar IntersectionExampleScenario.node[6].nic.mac1609_4 	SlotsBackoff 	0
scalar IntersectionExampleScenario.node[6].nic.mac1609_4 	NumInternalContention 	0
scalar IntersectionExampleScenario.node[6].nic.mac1609_4 	totalBusyTime 	0
scalar IntersectionExampleScenario.node[6].veinsmobility 	startTime 	24
scalar IntersectionExampleScenario.node[6].veinsmobility 	totalTime 	46
scalar IntersectionExampleScenario.node[6].veinsmobility 	stopTime 	70.25
scalar IntersectionExampleScenario.node[6].veinsmobility 	minSpeed 	3.7175872325897
scalar IntersectionExampleScenario.node[6].veinsmobility 	maxSpeed 	15.02499961853
scalar IntersectionExampleScenario.node[6].veinsmobility 	totalDistance 	550.83415411524
scalar IntersectionExampleScenario.node[6].veinsmobility 	totalCO2Emission 	129.09601628908
scalar IntersectionExampleScenario.node[7].appl 	VehicleRemoved 	0
scalar IntersectionExampleScenario.node[7].appl 	ArrivedAtDest 	1
scalar IntersectionExampleScenario.node[7].appl 	IntersectionEnterTime 	28.5
scalar IntersectionExampleScenario.node[7].appl 	IntersectionExitTime 	56.607603990182
scalar IntersectionExampleScenario.node[7].appl 	NumberOfCollisions 	0
scalar IntersectionExampleScenario.node[7].nic.phy80211p 	busyTime 	0
scalar IntersectionExampleScenario.node[7].nic.mac1609_4 	ReceivedUnicastPackets 	0
scalar IntersectionExampleScenario.node[7].nic.mac1609_4 	ReceivedBroadcasts 	0
scalar IntersectionExampleScenario.node[7].nic.mac1609_4 	SentPackets 	0
scalar IntersectionExampleScenario.node[7].nic.mac1609_4 	SNIRLostPackets 	0
scalar IntersectionExampleScenario.node[7].nic.mac1609_4 	RXTXLostPackets 	0
scalar IntersectionExampleScenario.node[7].nic.mac1609_4 	TotalLostPackets 	0
scalar IntersectionExampleScenario.node[7].nic.mac1609_4 	DroppedPacketsInMac 	0
scalar IntersectionExampleScenario.node[7].nic.mac1609_4 	TooLittleTime 	0
scalar IntersectionExampleScenario.node[7].nic.mac1609_4 	TimesIntoBackoff 	0
scalar IntersectionExampleScenario.node[7].nic.mac1609_4 	SlotsBackoff 	0
scalar IntersectionExampleScenario.node[7].nic.mac1609_4 	NumInternalContention 	0
scalar IntersectionExampleScenario.node[7].nic.mac1609_4 	totalBusyTime 	0
scalar IntersectionExampleScenario.node[7].veinsmobility 	startTime 	28.5
scalar IntersectionExampleScenario.node[7].veinsmobility 	totalTime 	45.25
scalar IntersectionExampleScenario.node[7].veinsmobility 	stopTime 	74
scalar IntersectionExampleScenario.node[7].veinsmobility 	minSpeed 	5.6500000953674
scalar IntersectionExampleScenario.node[7].veinsmobility 	maxSpeed 	14.720442771912
scalar IntersectionExampleScenario.node[7].veinsmobility 	totalDistance 	544.48521547327
scalar IntersectionExampleScenario.node[7].veinsmobility 	totalCO2Emission 	140.20121617133
scalar IntersectionExampleScenario.node[8].appl 	VehicleRemoved 	0
scalar IntersectionExampleScenario.node[8].appl 	ArrivedAtDest 	1
scalar IntersectionExampleScenario.node[8].appl 	IntersectionEnterTime 	30.25
scalar IntersectionExampleScenario.node[8].appl 	IntersectionExitTime 	58.609175104648
scalar IntersectionExampleScenario.node[8].appl 	NumberOfCollisions 	0
scalar IntersectionExampleScenario.node[8].nic.phy80211p 	busyTime 	0
scalar IntersectionExampleScenario.node[8].nic.mac1609_4 	ReceivedUnicastPackets 	0
scalar IntersectionExampleScenario.node[8].nic.mac1609_4 	ReceivedBroadcasts 	0
scalar IntersectionExampleScenario.node[8].nic.mac1609_4 	SentPackets 	0
scalar IntersectionExampleScenario.node[8].nic.mac1609_4 	SNIRLostPackets 	0
scalar IntersectionExampleScenario.node[8].nic.mac1609_4 	RXTXLostPackets 	0
scalar IntersectionExampleScenario.node[8].nic.mac1609_4 	TotalLostPackets 	0
scalar IntersectionExampleScenario.node[8].nic.mac1609_4 	DroppedPacketsInMac 	0
scalar IntersectionExampleScenario.node[8].nic.mac1609_4 	TooLittleTime 	0
scalar IntersectionExampleScenario.node[8].nic.mac1609_4 	TimesIntoBackoff 	0
scalar IntersectionExampleScenario.node[8].nic.mac1609_4 	SlotsBackoff 	0
scalar IntersectionExampleScenario.node[8].nic.mac1609_4 	NumInternalContention 	0
scalar IntersectionExampleScenario.node[8].nic.mac1609_4 	totalBusyTime 	0
scalar IntersectionExampleScenario.node[8].veinsmobility 	startTime 	30.25
scalar IntersectionExampleScenario.node[8].veinsmobility 	totalTime 	45.25
scalar IntersectionExampleScenario.node[8].veinsmobility 	stopTime 	75.75
scalar IntersectionExampleScenario.node[8].veinsmobility 	minSpeed 	5.6500000953674
scalar IntersectionExampleScenario.node[8].veinsmobility 	maxSpeed 	14.75
scalar IntersectionExampleScenario.node[8].veinsmobility 	totalDistance 	570.82860254741
scalar IntersectionExampleScenario.node[8].veinsmobility 	totalCO2Emission 	132.36716094328
scalar IntersectionExampleScenario.node[11].appl 	VehicleRemoved 	0
scalar IntersectionExampleScenario.node[11].appl 	ArrivedAtDest 	1
scalar IntersectionExampleScenario.node[11].appl 	IntersectionEnterTime 	31.5
scalar IntersectionExampleScenario.node[11].appl 	IntersectionExitTime 	60.299097640644
scalar IntersectionExampleScenario.node[11].appl 	NumberOfCollisions 	0
scalar IntersectionExampleScenario.node[11].nic.phy80211p 	busyTime 	0
scalar IntersectionExampleScenario.node[11].nic.mac1609_4 	ReceivedUnicastPackets 	0
scalar IntersectionExampleScenario.node[11].nic.mac1609_4 	ReceivedBroadcasts 	0
scalar IntersectionExampleScenario.node[11].nic.mac1609_4 	SentPackets 	0
scalar IntersectionExampleScenario.node[11].nic.mac1609_4 	SNIRLostPackets 	0
scalar IntersectionExampleScenario.node[11].nic.mac1609_4 	RXTXLostPackets 	0
scalar IntersectionExampleScenario.node[11].nic.mac1609_4 	TotalLostPackets 	0
scalar IntersectionExampleScenario.node[11].nic.mac1609_4 	DroppedPacketsInMac 	0
scalar IntersectionExampleScenario.node[11].nic.mac1609_4 	TooLittleTime 	0
scalar IntersectionExampleScenario.node[11].nic.mac1609_4 	TimesIntoBackoff 	0
scalar IntersectionExampleScenario.node[11].nic.mac1609_4 	SlotsBackoff 	0
scalar IntersectionExampleScenario.node[11].nic.mac1609_4 	NumInternalContention 	0
scalar IntersectionExampleScenario.node[11].nic.mac1609_4 	totalBusyTime 	0
scalar IntersectionExampleScenario.node[11].veinsmobility 	startTime 	31.5
scalar IntersectionExampleScenario.node[11].veinsmobility 	totalTime 	44.75
scalar IntersectionExampleScenario.node[11].veinsmobility 	stopTime 	76.5
scalar IntersectionExampleScenario.node[11].veinsmobility 	minSpeed 	4.7708563804626
scalar IntersectionExampleScenario.node[11].veinsmobility 	maxSpeed 	15.5
scalar IntersectionExampleScenario.node[11].veinsmobility 	totalDistance 	583.46151733398
scalar IntersectionExampleScenario.node[11].veinsmobility 	totalCO2Emission 	137.60403852736
scalar IntersectionExampleScenario.node[12].appl 	VehicleRemoved 	0
scalar IntersectionExampleScenario.node[12].appl 	ArrivedAtDest 	1
scalar IntersectionExampleScenario.node[12].appl 	IntersectionEnterTime 	36.5
scalar IntersectionExampleScenario.node[12].appl 	IntersectionExitTime 	59.755356459005
scalar IntersectionExampleScenario.node[12].appl 	NumberOfCollisions 	0
scalar IntersectionExampleScenario.node[12].nic.phy80211p 	busyTime 	0
scalar IntersectionExampleScenario.node[12].nic.mac1609_4 	ReceivedUnicastPackets 	0
scalar IntersectionExampleScenario.node[12].nic.mac1609_4 	ReceivedBroadcasts 	0
scalar IntersectionExampleScenario.node[12].nic.mac1609_4 	SentPackets 	0
scalar IntersectionExampleScenario.node[12].nic.mac1609_4 	SNIRLostPackets 	0
scalar IntersectionExampleScenario.node[12].nic.mac1609_4 	RXTXLostPackets 	0
scalar IntersectionExampleScenario.node[12].nic.mac1609_4 	TotalLostPackets 	0
scalar IntersectionExampleScenario.node[12].nic.mac1609_4 	DroppedPacketsInMac 	0
scalar IntersectionExampleScenario.node[12].nic.mac1609_4 	TooLittleTime 	0
scalar IntersectionExampleScenario.node[12].nic.mac1609_4 	TimesIntoBackoff 	0
scalar IntersectionExampleScenario.node[12].nic.mac1609_4 	SlotsBackoff 	0
scalar IntersectionExampleScenario.node[12].nic.mac1609_4 	NumInternalContention 	0
scalar IntersectionExampleScenario.node[12].nic.mac1609_4 	totalBusyTime 	0
scalar IntersectionExampleScenario.node[12].veinsmobility 	startTime 	36.5
scalar IntersectionExampleScenario.node[12].veinsmobility 	totalTime 	40.25
scalar IntersectionExampleScenario.node[12].veinsmobility 	stopTime 	77
scalar IntersectionExampleScenario.node[12].veinsmobility 	minSpeed 	5.6500000953674
scalar IntersectionExampleScenario.node[12].veinsmobility 	maxSpeed 	16.004219055176
scalar IntersectionExampleScenario.node[12].veinsmobility 	totalDistance 	545.64334767834
scalar IntersectionExampleScenario.node[12].veinsmobility 	totalCO2Emission 	135.9528895545
scalar IntersectionExampleScenario.node[10].appl 	VehicleRemoved 	0
scalar IntersectionExampleScenario.node[10].appl 	ArrivedAtDest 	1
scalar IntersectionExampleScenario.node[10].appl 	IntersectionEnterTime 	30.75
scalar IntersectionExampleScenario.node[10].appl 	IntersectionExitTime 	65.51751977019
scalar IntersectionExampleScenario.node[10].appl 	NumberOfCollisions 	0
scalar IntersectionExampleScenario.node[10].nic.phy80211p 	busyTime 	0
scalar IntersectionExampleScenario.node[10].nic.mac1609_4 	ReceivedUnicastPackets 	0
scalar IntersectionExampleScenario.node[10].nic.mac1609_4 	ReceivedBroadcasts 	0
scalar IntersectionExampleScenario.node[10].nic.mac1609_4 	SentPackets 	0
scalar IntersectionExampleScenario.node[10].nic.mac1609_4 	SNIRLostPackets 	0
scalar IntersectionExampleScenario.node[10].nic.mac1609_4 	RXTXLostPackets 	0
scalar IntersectionExampleScenario.node[10].nic.mac1609_4 	TotalLostPackets 	0
scalar IntersectionExampleScenario.node[10].nic.mac1609_4 	DroppedPacketsInMac 	0
scalar IntersectionExampleScenario.node[10].nic.mac1609_4 	TooLittleTime 	0
scalar IntersectionExampleScenario.node[10].nic.mac1609_4 	TimesIntoBackoff 	0
scalar IntersectionExampleScenario.node[10].nic.mac1609_4 	SlotsBackoff 	0
scalar IntersectionExampleScenario.node[10].nic.mac1609_4 	NumInternalContention 	0
scalar IntersectionExampleScenario.node[10].nic.mac1609_4 	totalBusyTime 	0
scalar IntersectionExampleScenario.node[10].veinsmobility 	startTime 	30.75
scalar IntersectionExampleScenario.node[10].veinsmobility 	totalTime 	52.25
scalar IntersectionExampleScenario.node[10].veinsmobility 	stopTime 	83.25
scalar IntersectionExampleScenario.node[10].veinsmobility 	minSpeed 	0
scalar IntersectionExampleScenario.node[10].veinsmobility 	maxSpeed 	15.02499961853
scalar IntersectionExampleScenario.node[10].veinsmobility 	totalDistance 	545.07412625701
scalar IntersectionExampleScenario.node[10].veinsmobility 	totalCO2Emission 	138.55768027616
scalar IntersectionExampleScenario.node[14].appl 	VehicleRemoved 	0
scalar IntersectionExampleScenario.node[14].appl 	ArrivedAtDest 	1
scalar IntersectionExampleScenario.node[14].appl 	IntersectionEnterTime 	45
scalar IntersectionExampleScenario.node[14].appl 	IntersectionExitTime 	69.00876069488
scalar IntersectionExampleScenario.node[14].appl 	NumberOfCollisions 	0
scalar IntersectionExampleScenario.node[14].nic.phy80211p 	busyTime 	0
scalar IntersectionExampleScenario.node[14].nic.mac1609_4 	ReceivedUnicastPackets 	0
scalar IntersectionExampleScenario.node[14].nic.mac1609_4 	ReceivedBroadcasts 	0
scalar IntersectionExampleScenario.node[14].nic.mac1609_4 	SentPackets 	0
scalar IntersectionExampleScenario.node[14].nic.mac1609_4 	SNIRLostPackets 	0
scalar IntersectionExampleScenario.node[14].nic.mac1609_4 	RXTXLostPackets 	0
scalar IntersectionExampleScenario.node[14].nic.mac1609_4 	TotalLostPackets 	0
scalar IntersectionExampleScenario.node[14].nic.mac1609_4 	DroppedPacketsInMac 	0
scalar IntersectionExampleScenario.node[14].nic.mac1609_4 	TooLittleTime 	0
scalar IntersectionExampleScenario.node[14].nic.mac1609_4 	TimesIntoBackoff 	0
scalar IntersectionExampleScenario.node[14].nic.mac1609_4 	SlotsBackoff 	0
scalar IntersectionExampleScenario.node[14].nic.mac1609_4 	NumInternalContention 	0
scalar IntersectionExampleScenario.node[14].nic.mac1609_4 	totalBusyTime 	0
scalar IntersectionExampleScenario.node[14].veinsmobility 	startTime 	45
scalar IntersectionExampleScenario.node[14].veinsmobility 	totalTime 	39.75
scalar IntersectionExampleScenario.node[14].veinsmobility 	stopTime 	85
scalar IntersectionExampleScenario.node[14].veinsmobility 	minSpeed 	5.6500000953674
scalar IntersectionExampleScenario.node[14].veinsmobility 	maxSpeed 	15.64999961853
scalar IntersectionExampleScenario.node[14].veinsmobility 	totalDistance 	550.99320220947
scalar IntersectionExampleScenario.node[14].veinsmobility 	totalCO2Emission 	133.74367797635
scalar IntersectionExampleScenario.node[16].appl 	VehicleRemoved 	0
scalar IntersectionExampleScenario.node[16].appl 	ArrivedAtDest 	1
scalar IntersectionExampleScenario.node[16].appl 	IntersectionEnterTime 	53
scalar IntersectionExampleScenario.node[16].appl 	IntersectionExitTime 	82.362908299256
scalar IntersectionExampleScenario.node[16].appl 	NumberOfCollisions 	0
scalar IntersectionExampleScenario.node[16].nic.phy80211p 	busyTime 	0
scalar IntersectionExampleScenario.node[16].nic.mac1609_4 	ReceivedUnicastPackets 	0
scalar IntersectionExampleScenario.node[16].nic.mac1609_4 	ReceivedBroadcasts 	0
scalar IntersectionExampleScenario.node[16].nic.mac1609_4 	SentPackets 	0
scalar IntersectionExampleScenario.node[16].nic.mac1609_4 	SNIRLostPackets 	0
scalar IntersectionExampleScenario.node[16].nic.mac1609_4 	RXTXLostPackets 	0
scalar IntersectionExampleScenario.node[16].nic.mac1609_4 	TotalLostPackets 	0
scalar IntersectionExampleScenario.node[16].nic.mac1609_4 	DroppedPacketsInMac 	0
scalar IntersectionExampleScenario.node[16].nic.mac1609_4 	TooLittleTime 	0
scalar IntersectionExampleScenario.node[16].nic.mac1609_4 	TimesIntoBackoff 	0
scalar IntersectionExampleScenario.node[16].nic.mac1609_4 	SlotsBackoff 	0
scalar IntersectionExampleScenario.node[16].nic.mac1609_4 	NumInternalContention 	0
scalar IntersectionExampleScenario.node[16].nic.mac1609_4 	totalBusyTime 	0
scalar IntersectionExampleScenario.node[16].veinsmobility 	startTime 	53
scalar IntersectionExampleScenario.node[16].veinsmobility 	totalTime 	45.25
scalar IntersectionExampleScenario.node[16].veinsmobility 	stopTime 	98.5
scalar IntersectionExampleScenario.node[16].veinsmobility 	minSpeed 	0
scalar IntersectionExampleScenario.node[16].veinsmobility 	maxSpeed 	15.64999961853
scalar IntersectionExampleScenario.node[16].veinsmobility 	totalDistance 	553.61804199219
scalar IntersectionExampleScenario.node[16].veinsmobility 	totalCO2Emission 	138.32506828446
scalar IntersectionExampleScenario.node[13].appl 	VehicleRemoved 	0
scalar IntersectionExampleScenario.node[13].appl 	ArrivedAtDest 	1
scalar IntersectionExampleScenario.node[13].appl 	IntersectionEnterTime 	41.75
scalar IntersectionExampleScenario.node[13].appl 	IntersectionExitTime 	82.334214289964
scalar IntersectionExampleScenario.node[13].appl 	NumberOfCollisions 	0
scalar IntersectionExampleScenario.node[13].nic.phy80211p 	busyTime 	0
scalar IntersectionExampleScenario.node[13].nic.mac1609_4 	ReceivedUnicastPackets 	0
scalar IntersectionExampleScenario.node[13].nic.mac1609_4 	ReceivedBroadcasts 	0
scalar IntersectionExampleScenario.node[13].nic.mac1609_4 	SentPackets 	0
scalar IntersectionExampleScenario.node[13].nic.mac1609_4 	SNIRLostPackets 	0
scalar IntersectionExampleScenario.node[13].nic.mac1609_4 	RXTXLostPackets 	0
scalar IntersectionExampleScenario.node[13].nic.mac1609_4 	TotalLostPackets 	0
scalar IntersectionExampleScenario.node[13].nic.mac1609_4 	DroppedPacketsInMac 	0
scalar IntersectionExampleScenario.node[13].nic.mac1609_4 	TooLittleTime 	0
scalar IntersectionExampleScenario.node[13].nic.mac1609_4 	TimesIntoBackoff 	0
scalar IntersectionExampleScenario.node[13].nic.mac1609_4 	SlotsBackoff 	0
scalar IntersectionExampleScenario.node[13].nic.mac1609_4 	NumInternalContention 	0
scalar IntersectionExampleScenario.node[13].nic.mac1609_4 	totalBusyTime 	0
scalar IntersectionExampleScenario.node[13].veinsmobility 	startTime 	41.75
scalar IntersectionExampleScenario.node[13].veinsmobility 	totalTime 	57.25
scalar IntersectionExampleScenario.node[13].veinsmobility 	stopTime 	99.25
scalar IntersectionExampleScenario.node[13].veinsmobility 	minSpeed 	0
scalar IntersectionExampleScenario.node[13].veinsmobility 	maxSpeed 	15.02499961853
scalar IntersectionExampleScenario.node[13].veinsmobility 	totalDistance 	551.50508226504
scalar IntersectionExampleScenario.node[13].veinsmobility 	totalCO2Emission 	145.82462969469
scalar IntersectionExampleScenario.node[15].appl 	VehicleRemoved 	0
scalar IntersectionExampleScenario.node[15].appl 	ArrivedAtDest 	1
scalar IntersectionExampleScenario.node[15].appl 	IntersectionEnterTime 	47.25
scalar IntersectionExampleScenario.node[15].appl 	IntersectionExitTime 	83.004347769747
scalar IntersectionExampleScenario.node[15].appl 	NumberOfCollisions 	0
scalar IntersectionExampleScenario.node[15].nic.phy80211p 	busyTime 	0
scalar IntersectionExampleScenario.node[15].nic.mac1609_4 	ReceivedUnicastPackets 	0
scalar IntersectionExampleScenario.node[15].nic.mac1609_4 	ReceivedBroadcasts 	0
scalar IntersectionExampleScenario.node[15].nic.mac1609_4 	SentPackets 	0
scalar IntersectionExampleScenario.node[15].nic.mac1609_4 	SNIRLostPackets 	0
scalar IntersectionExampleScenario.node[15].nic.mac1609_4 	RXTXLostPackets 	0
scalar IntersectionExampleScenario.node[15].nic.mac1609_4 	TotalLostPackets 	0
scalar IntersectionExampleScenario.node[15].nic.mac1609_4 	DroppedPacketsInMac 	0
scalar IntersectionExampleScenario.node[15].nic.mac1609_4 	TooLittleTime 	0
scalar IntersectionExampleScenario.node[15].nic.mac1609_4 	TimesIntoBackoff 	0
scalar IntersectionExampleScenario.node[15].nic.mac1609_4 	SlotsBackoff 	0
scalar IntersectionExampleScenario.node[15].nic.mac1609_4 	NumInternalContention 	0
scalar IntersectionExampleScenario.node[15].nic.mac1609_4 	totalBusyTime 	0
scalar IntersectionExampleScenario.node[15].veinsmobility 	startTime 	47.25
scalar IntersectionExampleScenario.node[15].veinsmobility 	totalTime 	52.25
scalar IntersectionExampleScenario.node[15].veinsmobility 	stopTime 	99.75
scalar IntersectionExampleScenario.node[15].veinsmobility 	minSpeed 	0
scalar IntersectionExampleScenario.node[15].veinsmobility 	maxSpeed 	15.875
scalar IntersectionExampleScenario.node[15].veinsmobility 	totalDistance 	546.00451030857
scalar IntersectionExampleScenario.node[15].veinsmobility 	totalCO2Emission 	146.08964256882
scalar IntersectionExampleScenario.node[17].appl 	VehicleRemoved 	0
scalar IntersectionExampleScenario.node[17].appl 	ArrivedAtDest 	1
scalar IntersectionExampleScenario.node[17].appl 	IntersectionEnterTime 	57.25
scalar IntersectionExampleScenario.node[17].appl 	IntersectionExitTime 	85.591195634159
scalar IntersectionExampleScenario.node[17].appl 	NumberOfCollisions 	0
scalar IntersectionExampleScenario.node[17].nic.phy80211p 	busyTime 	0
scalar IntersectionExampleScenario.node[17].nic.mac1609_4 	ReceivedUnicastPackets 	0
scalar IntersectionExampleScenario.node[17].nic.mac1609_4 	ReceivedBroadcasts 	0
scalar IntersectionExampleScenario.node[17].nic.mac1609_4 	SentPackets 	0
scalar IntersectionExampleScenario.node[17].nic.mac1609_4 	SNIRLostPackets 	0
scalar IntersectionExampleScenario.node[17].nic.mac1609_4 	RXTXLostPackets 	0
scalar IntersectionExampleScenario.node[17].nic.mac1609_4 	TotalLostPackets 	0
scalar IntersectionExampleScenario.node[17].nic.mac1609_4 	DroppedPacketsInMac 	0
scalar IntersectionExampleScenario.node[17].nic.mac1609_4 	TooLittleTime 	0
scalar IntersectionExampleScenario.node[17].nic.mac1609_4 	TimesIntoBackoff 	0
scalar IntersectionExampleScenario.node[17].nic.mac1609_4 	SlotsBackoff 	0
scalar IntersectionExampleScenario.node[17].nic.mac1609_4 	NumInternalContention 	0
scalar IntersectionExampleScenario.node[17].nic.mac1609_4 	totalBusyTime 	0
scalar IntersectionExampleScenario.node[17].veinsmobility 	startTime 	57.25
scalar IntersectionExampleScenario.node[17].veinsmobility 	totalTime 	45.25
scalar IntersectionExampleScenario.node[17].veinsmobility 	stopTime 	102.75
scalar IntersectionExampleScenario.node[17].veinsmobility 	minSpeed 	4.7805676460266
scalar IntersectionExampleScenario.node[17].veinsmobility 	maxSpeed 	15.25
scalar IntersectionExampleScenario.node[17].veinsmobility 	totalDistance 	544.99720510048
scalar IntersectionExampleScenario.node[17].veinsmobility 	totalCO2Emission 	132.13984657564
scalar IntersectionExampleScenario.node[18].appl 	VehicleRemoved 	0
scalar IntersectionExampleScenario.node[18].appl 	ArrivedAtDest 	1
scalar IntersectionExampleScenario.node[18].appl 	IntersectionEnterTime 	60.75
scalar IntersectionExampleScenario.node[18].appl 	IntersectionExitTime 	88.102153994056
scalar IntersectionExampleScenario.node[18].appl 	NumberOfCollisions 	0
scalar IntersectionExampleScenario.node[18].nic.phy80211p 	busyTime 	0
scalar IntersectionExampleScenario.node[18].nic.mac1609_4 	ReceivedUnicastPackets 	0
scalar IntersectionExampleScenario.node[18].nic.mac1609_4 	ReceivedBroadcasts 	0
scalar IntersectionExampleScenario.node[18].nic.mac1609_4 	SentPackets 	0
scalar IntersectionExampleScenario.node[18].nic.mac1609_4 	SNIRLostPackets 	0
scalar IntersectionExampleScenario.node[18].nic.mac1609_4 	RXTXLostPackets 	0
scalar IntersectionExampleScenario.node[18].nic.mac1609_4 	TotalLostPackets 	0
scalar IntersectionExampleScenario.node[18].nic.mac1609_4 	DroppedPacketsInMac 	0
scalar IntersectionExampleScenario.node[18].nic.mac1609_4 	TooLittleTime 	0
scalar IntersectionExampleScenario.node[18].nic.mac1609_4 	TimesIntoBackoff 	0
scalar IntersectionExampleScenario.node[18].nic.mac1609_4 	SlotsBackoff 	0
scalar IntersectionExampleScenario.node[18].nic.mac1609_4 	NumInternalContention 	0
scalar IntersectionExampleScenario.node[18].nic.mac1609_4 	totalBusyTime 	0
scalar IntersectionExampleScenario.node[18].veinsmobility 	startTime 	60.75
scalar IntersectionExampleScenario.node[18].veinsmobility 	totalTime 	43.5
scalar IntersectionExampleScenario.node[18].veinsmobility 	stopTime 	104.5
scalar IntersectionExampleScenario.node[18].veinsmobility 	minSpeed 	5.6500000953674
scalar IntersectionExampleScenario.node[18].veinsmobility 	maxSpeed 	15.810426712036
scalar IntersectionExampleScenario.node[18].veinsmobility 	totalDistance 	553.57259429332
scalar IntersectionExampleScenario.node[18].veinsmobility 	totalCO2Emission 	139.24105494232
scalar IntersectionExampleScenario.node[22].appl 	VehicleRemoved 	0
scalar IntersectionExampleScenario.node[22].appl 	ArrivedAtDest 	1
scalar IntersectionExampleScenario.node[22].appl 	IntersectionEnterTime 	73
scalar IntersectionExampleScenario.node[22].appl 	IntersectionExitTime 	94.567446940811
scalar IntersectionExampleScenario.node[22].appl 	NumberOfCollisions 	0
scalar IntersectionExampleScenario.node[22].nic.phy80211p 	busyTime 	0
scalar IntersectionExampleScenario.node[22].nic.mac1609_4 	ReceivedUnicastPackets 	0
scalar IntersectionExampleScenario.node[22].nic.mac1609_4 	ReceivedBroadcasts 	0
scalar IntersectionExampleScenario.node[22].nic.mac1609_4 	SentPackets 	0
scalar IntersectionExampleScenario.node[22].nic.mac1609_4 	SNIRLostPackets 	0
scalar IntersectionExampleScenario.node[22].nic.mac1609_4 	RXTXLostPackets 	0
scalar IntersectionExampleScenario.node[22].nic.mac1609_4 	TotalLostPackets 	0
scalar IntersectionExampleScenario.node[22].nic.mac1609_4 	DroppedPacketsInMac 	0
scalar IntersectionExampleScenario.node[22].nic.mac1609_4 	TooLittleTime 	0
scalar IntersectionExampleScenario.node[22].nic.mac1609_4 	TimesIntoBackoff 	0
scalar IntersectionExampleScenario.node[22].nic.mac1609_4 	SlotsBackoff 	0
scalar IntersectionExampleScenario.node[22].nic.mac1609_4 	NumInternalContention 	0
scalar IntersectionExampleScenario.node[22].nic.mac1609_4 	totalBusyTime 	0
scalar IntersectionExampleScenario.node[22].veinsmobility 	startTime 	73
scalar IntersectionExampleScenario.node[22].veinsmobility 	totalTime 	36.5
scalar IntersectionExampleScenario.node[22].veinsmobility 	stopTime 	109.75
scalar IntersectionExampleScenario.node[22].veinsmobility 	minSpeed 	5.6500000953674
scalar IntersectionExampleScenario.node[22].veinsmobility 	maxSpeed 	16.89999961853
scalar IntersectionExampleScenario.node[22].veinsmobility 	totalDistance 	554.06327819824
scalar IntersectionExampleScenario.node[22].veinsmobility 	totalCO2Emission 	126.88793675579
scalar IntersectionExampleScenario.node[21].appl 	VehicleRemoved 	0
scalar IntersectionExampleScenario.node[21].appl 	ArrivedAtDest 	1
scalar IntersectionExampleScenario.node[21].appl 	IntersectionEnterTime 	72
scalar IntersectionExampleScenario.node[21].appl 	IntersectionExitTime 	94.82686655884
scalar IntersectionExampleScenario.node[21].appl 	NumberOfCollisions 	0
scalar IntersectionExampleScenario.node[21].nic.phy80211p 	busyTime 	0
scalar IntersectionExampleScenario.node[21].nic.mac1609_4 	ReceivedUnicastPackets 	0
scalar IntersectionExampleScenario.node[21].nic.mac1609_4 	ReceivedBroadcasts 	0
scalar IntersectionExampleScenario.node[21].nic.mac1609_4 	SentPackets 	0
scalar IntersectionExampleScenario.node[21].nic.mac1609_4 	SNIRLostPackets 	0
scalar IntersectionExampleScenario.node[21].nic.mac1609_4 	RXTXLostPackets 	0
scalar IntersectionExampleScenario.node[21].nic.mac1609_4 	TotalLostPackets 	0
scalar IntersectionExampleScenario.node[21].nic.mac1609_4 	DroppedPacketsInMac 	0
scalar IntersectionExampleScenario.node[21].nic.mac1609_4 	TooLittleTime 	0
scalar IntersectionExampleScenario.node[21].nic.mac1609_4 	TimesIntoBackoff 	0
scalar IntersectionExampleScenario.node[21].nic.mac1609_4 	SlotsBackoff 	0
scalar IntersectionExampleScenario.node[21].nic.mac1609_4 	NumInternalContention 	0
scalar IntersectionExampleScenario.node[21].nic.mac1609_4 	totalBusyTime 	0
scalar IntersectionExampleScenario.node[21].veinsmobility 	startTime 	72
scalar IntersectionExampleScenario.node[21].veinsmobility 	totalTime 	38.75
scalar IntersectionExampleScenario.node[21].veinsmobility 	stopTime 	111
scalar IntersectionExampleScenario.node[21].veinsmobility 	minSpeed 	5.6500000953674
scalar IntersectionExampleScenario.node[21].veinsmobility 	maxSpeed 	16.27499961853
scalar IntersectionExampleScenario.node[21].veinsmobility 	totalDistance 	552.27913186129
scalar IntersectionExampleScenario.node[21].veinsmobility 	totalCO2Emission 	126.14883810763
scalar IntersectionExampleScenario.node[20].appl 	VehicleRemoved 	0
scalar IntersectionExampleScenario.node[20].appl 	ArrivedAtDest 	1
scalar IntersectionExampleScenario.node[20].appl 	IntersectionEnterTime 	65.25
scalar IntersectionExampleScenario.node[20].appl 	IntersectionExitTime 	97.287828830536
scalar IntersectionExampleScenario.node[20].appl 	NumberOfCollisions 	0
scalar IntersectionExampleScenario.node[20].nic.phy80211p 	busyTime 	0
scalar IntersectionExampleScenario.node[20].nic.mac1609_4 	ReceivedUnicastPackets 	0
scalar IntersectionExampleScenario.node[20].nic.mac1609_4 	ReceivedBroadcasts 	0
scalar IntersectionExampleScenario.node[20].nic.mac1609_4 	SentPackets 	0
scalar IntersectionExampleScenario.node[20].nic.mac1609_4 	SNIRLostPackets 	0
scalar IntersectionExampleScenario.node[20].nic.mac1609_4 	RXTXLostPackets 	0
scalar IntersectionExampleScenario.node[20].nic.mac1609_4 	TotalLostPackets 	0
scalar IntersectionExampleScenario.node[20].nic.mac1609_4 	DroppedPacketsInMac 	0
scalar IntersectionExampleScenario.node[20].nic.mac1609_4 	TooLittleTime 	0
scalar IntersectionExampleScenario.node[20].nic.mac1609_4 	TimesIntoBackoff 	0
scalar IntersectionExampleScenario.node[20].nic.mac1609_4 	SlotsBackoff 	0
scalar IntersectionExampleScenario.node[20].nic.mac1609_4 	NumInternalContention 	0
scalar IntersectionExampleScenario.node[20].nic.mac1609_4 	totalBusyTime 	0
scalar IntersectionExampleScenario.node[20].veinsmobility 	startTime 	65.25
scalar IntersectionExampleScenario.node[20].veinsmobility 	totalTime 	48.25
scalar IntersectionExampleScenario.node[20].veinsmobility 	stopTime 	113.75
scalar IntersectionExampleScenario.node[20].veinsmobility 	minSpeed 	0
scalar IntersectionExampleScenario.node[20].veinsmobility 	maxSpeed 	15.64999961853
scalar IntersectionExampleScenario.node[20].veinsmobility 	totalDistance 	551.5423976337
scalar IntersectionExampleScenario.node[20].veinsmobility 	totalCO2Emission 	140.00741617837
scalar IntersectionExampleScenario.node[19].appl 	VehicleRemoved 	0
scalar IntersectionExampleScenario.node[19].appl 	ArrivedAtDest 	1
scalar IntersectionExampleScenario.node[19].appl 	IntersectionEnterTime 	64
scalar IntersectionExampleScenario.node[19].appl 	IntersectionExitTime 	97.251018130482
scalar IntersectionExampleScenario.node[19].appl 	NumberOfCollisions 	0
scalar IntersectionExampleScenario.node[19].nic.phy80211p 	busyTime 	0
scalar IntersectionExampleScenario.node[19].nic.mac1609_4 	ReceivedUnicastPackets 	0
scalar IntersectionExampleScenario.node[19].nic.mac1609_4 	ReceivedBroadcasts 	0
scalar IntersectionExampleScenario.node[19].nic.mac1609_4 	SentPackets 	0
scalar IntersectionExampleScenario.node[19].nic.mac1609_4 	SNIRLostPackets 	0
scalar IntersectionExampleScenario.node[19].nic.mac1609_4 	RXTXLostPackets 	0
scalar IntersectionExampleScenario.node[19].nic.mac1609_4 	TotalLostPackets 	0
scalar IntersectionExampleScenario.node[19].nic.mac1609_4 	DroppedPacketsInMac 	0
scalar IntersectionExampleScenario.node[19].nic.mac1609_4 	TooLittleTime 	0
scalar IntersectionExampleScenario.node[19].nic.mac1609_4 	TimesIntoBackoff 	0
scalar IntersectionExampleScenario.node[19].nic.mac1609_4 	SlotsBackoff 	0
scalar IntersectionExampleScenario.node[19].nic.mac1609_4 	NumInternalContention 	0
scalar IntersectionExampleScenario.node[19].nic.mac1609_4 	totalBusyTime 	0
scalar IntersectionExampleScenario.node[19].veinsmobility 	startTime 	64
scalar IntersectionExampleScenario.node[19].veinsmobility 	totalTime 	50.25
scalar IntersectionExampleScenario.node[19].veinsmobility 	stopTime 	114.5
scalar IntersectionExampleScenario.node[19].veinsmobility 	minSpeed 	0
scalar IntersectionExampleScenario.node[19].veinsmobility 	maxSpeed 	14.75
scalar IntersectionExampleScenario.node[19].veinsmobility 	totalDistance 	554.11887359619
scalar IntersectionExampleScenario.node[19].veinsmobility 	totalCO2Emission 	135.91525825317
scalar IntersectionExampleScenario.node[23].appl 	VehicleRemoved 	0
scalar IntersectionExampleScenario.node[23].appl 	ArrivedAtDest 	1
scalar IntersectionExampleScenario.node[23].appl 	IntersectionEnterTime 	81.25
scalar IntersectionExampleScenario.node[23].appl 	IntersectionExitTime 	104.32901146059
scalar IntersectionExampleScenario.node[23].appl 	NumberOfCollisions 	0
scalar IntersectionExampleScenario.node[23].nic.phy80211p 	busyTime 	0
scalar IntersectionExampleScenario.node[23].nic.mac1609_4 	ReceivedUnicastPackets 	0
scalar IntersectionExampleScenario.node[23].nic.mac1609_4 	ReceivedBroadcasts 	0
scalar IntersectionExampleScenario.node[23].nic.mac1609_4 	SentPackets 	0
scalar IntersectionExampleScenario.node[23].nic.mac1609_4 	SNIRLostPackets 	0
scalar IntersectionExampleScenario.node[23].nic.mac1609_4 	RXTXLostPackets 	0
scalar IntersectionExampleScenario.node[23].nic.mac1609_4 	TotalLostPackets 	0
scalar IntersectionExampleScenario.node[23].nic.mac1609_4 	DroppedPacketsInMac 	0
scalar IntersectionExampleScenario.node[23].nic.mac1609_4 	TooLittleTime 	0
scalar IntersectionExampleScenario.node[23].nic.mac1609_4 	TimesIntoBackoff 	0
scalar IntersectionExampleScenario.node[23].nic.mac1609_4 	SlotsBackoff 	0
scalar IntersectionExampleScenario.node[23].nic.mac1609_4 	NumInternalContention 	0
scalar IntersectionExampleScenario.node[23].nic.mac1609_4 	totalBusyTime 	0
scalar IntersectionExampleScenario.node[23].veinsmobility 	startTime 	81.25
scalar IntersectionExampleScenario.node[23].veinsmobility 	totalTime 	39.25
scalar IntersectionExampleScenario.node[23].veinsmobility 	stopTime 	120.75
scalar IntersectionExampleScenario.node[23].veinsmobility 	minSpeed 	5.6500000953674
scalar IntersectionExampleScenario.node[23].veinsmobility 	maxSpeed 	15.64999961853
scalar IntersectionExampleScenario.node[23].veinsmobility 	totalDistance 	550.3670403771
scalar IntersectionExampleScenario.node[23].veinsmobility 	totalCO2Emission 	123.47666246371
scalar IntersectionExampleScenario.node[24].appl 	VehicleRemoved 	0
scalar IntersectionExampleScenario.node[24].appl 	ArrivedAtDest 	1
scalar IntersectionExampleScenario.node[24].appl 	IntersectionEnterTime 	88.75
scalar IntersectionExampleScenario.node[24].appl 	IntersectionExitTime 	111.34891477885
scalar IntersectionExampleScenario.node[24].appl 	NumberOfCollisions 	0
scalar IntersectionExampleScenario.node[24].nic.phy80211p 	busyTime 	0
scalar IntersectionExampleScenario.node[24].nic.mac1609_4 	ReceivedUnicastPackets 	0
scalar IntersectionExampleScenario.node[24].nic.mac1609_4 	ReceivedBroadcasts 	0
scalar IntersectionExampleScenario.node[24].nic.mac1609_4 	SentPackets 	0
scalar IntersectionExampleScenario.node[24].nic.mac1609_4 	SNIRLostPackets 	0
scalar IntersectionExampleScenario.node[24].nic.mac1609_4 	RXTXLostPackets 	0
scalar IntersectionExampleScenario.node[24].nic.mac1609_4 	TotalLostPackets 	0
scalar IntersectionExampleScenario.node[24].nic.mac1609_4 	DroppedPacketsInMac 	0
scalar IntersectionExampleScenario.node[24].nic.mac1609_4 	TooLittleTime 	0
scalar IntersectionExampleScenario.node[24].nic.mac1609_4 	TimesIntoBackoff 	0
scalar IntersectionExampleScenario.node[24].nic.mac1609_4 	SlotsBackoff 	0
scalar IntersectionExampleScenario.node[24].nic.mac1609_4 	NumInternalContention 	0
scalar IntersectionExampleScenario.node[24].nic.mac1609_4 	totalBusyTime 	0
scalar IntersectionExampleScenario.node[24].veinsmobility 	startTime 	88.75
scalar IntersectionExampleScenario.node[24].veinsmobility 	totalTime 	38.25
scalar IntersectionExampleScenario.node[24].veinsmobility 	stopTime 	127.25
scalar IntersectionExampleScenario.node[24].veinsmobility 	minSpeed 	5.6500000953674
scalar IntersectionExampleScenario.node[24].veinsmobility 	maxSpeed 	16.27499961853
scalar IntersectionExampleScenario.node[24].veinsmobility 	totalDistance 	549.29860773631
scalar IntersectionExampleScenario.node[24].veinsmobility 	totalCO2Emission 	126.892326692
scalar IntersectionExampleScenario.node[25].appl 	VehicleRemoved 	0
scalar IntersectionExampleScenario.node[25].appl 	ArrivedAtDest 	1
scalar IntersectionExampleScenario.node[25].appl 	IntersectionEnterTime 	92.75
scalar IntersectionExampleScenario.node[25].appl 	IntersectionExitTime 	116.11464908844
scalar IntersectionExampleScenario.node[25].appl 	NumberOfCollisions 	0
scalar IntersectionExampleScenario.node[25].nic.phy80211p 	busyTime 	0
scalar IntersectionExampleScenario.node[25].nic.mac1609_4 	ReceivedUnicastPackets 	0
scalar IntersectionExampleScenario.node[25].nic.mac1609_4 	ReceivedBroadcasts 	0
scalar IntersectionExampleScenario.node[25].nic.mac1609_4 	SentPackets 	0
scalar IntersectionExampleScenario.node[25].nic.mac1609_4 	SNIRLostPackets 	0
scalar IntersectionExampleScenario.node[25].nic.mac1609_4 	RXTXLostPackets 	0
scalar IntersectionExampleScenario.node[25].nic.mac1609_4 	TotalLostPackets 	0
scalar IntersectionExampleScenario.node[25].nic.mac1609_4 	DroppedPacketsInMac 	0
scalar IntersectionExampleScenario.node[25].nic.mac1609_4 	TooLittleTime 	0
scalar IntersectionExampleScenario.node[25].nic.mac1609_4 	TimesIntoBackoff 	0
scalar IntersectionExampleScenario.node[25].nic.mac1609_4 	SlotsBackoff 	0
scalar IntersectionExampleScenario.node[25].nic.mac1609_4 	NumInternalContention 	0
scalar IntersectionExampleScenario.node[25].nic.mac1609_4 	totalBusyTime 	0
scalar IntersectionExampleScenario.node[25].veinsmobility 	startTime 	92.75
scalar IntersectionExampleScenario.node[25].veinsmobility 	totalTime 	39.75
scalar IntersectionExampleScenario.node[25].veinsmobility 	stopTime 	132.75
scalar IntersectionExampleScenario.node[25].veinsmobility 	minSpeed 	5.6500000953674
scalar IntersectionExampleScenario.node[25].veinsmobility 	maxSpeed 	15.875
scalar IntersectionExampleScenario.node[25].veinsmobility 	totalDistance 	545.83182326452
scalar IntersectionExampleScenario.node[25].veinsmobility 	totalCO2Emission 	128.35904976917
scalar IntersectionExampleScenario.node[26].appl 	VehicleRemoved 	0
scalar IntersectionExampleScenario.node[26].appl 	ArrivedAtDest 	1
scalar IntersectionExampleScenario.node[26].appl 	IntersectionEnterTime 	93.5
scalar IntersectionExampleScenario.node[26].appl 	IntersectionExitTime 	116.85520514348
scalar IntersectionExampleScenario.node[26].appl 	NumberOfCollisions 	0
scalar IntersectionExampleScenario.node[26].nic.phy80211p 	busyTime 	0
scalar IntersectionExampleScenario.node[26].nic.mac1609_4 	ReceivedUnicastPackets 	0
scalar IntersectionExampleScenario.node[26].nic.mac1609_4 	ReceivedBroadcasts 	0
scalar IntersectionExampleScenario.node[26].nic.mac1609_4 	SentPackets 	0
scalar IntersectionExampleScenario.node[26].nic.mac1609_4 	SNIRLostPackets 	0
scalar IntersectionExampleScenario.node[26].nic.mac1609_4 	RXTXLostPackets 	0
scalar IntersectionExampleScenario.node[26].nic.mac1609_4 	TotalLostPackets 	0
scalar IntersectionExampleScenario.node[26].nic.mac1609_4 	DroppedPacketsInMac 	0
scalar IntersectionExampleScenario.node[26].nic.mac1609_4 	TooLittleTime 	0
scalar IntersectionExampleScenario.node[26].nic.mac1609_4 	TimesIntoBackoff 	0
scalar IntersectionExampleScenario.node[26].nic.mac1609_4 	SlotsBackoff 	0
scalar IntersectionExampleScenario.node[26].nic.mac1609_4 	NumInternalContention 	0
scalar IntersectionExampleScenario.node[26].nic.mac1609_4 	totalBusyTime 	0
scalar IntersectionExampleScenario.node[26].veinsmobility 	startTime 	93.5
scalar IntersectionExampleScenario.node[26].veinsmobility 	totalTime 	40
scalar IntersectionExampleScenario.node[26].veinsmobility 	stopTime 	133.75
scalar IntersectionExampleScenario.node[26].veinsmobility 	minSpeed 	5.6500000953674
scalar IntersectionExampleScenario.node[26].veinsmobility 	maxSpeed 	15.875
scalar IntersectionExampleScenario.node[26].veinsmobility 	totalDistance 	545.62880204242
scalar IntersectionExampleScenario.node[26].veinsmobility 	totalCO2Emission 	127.12384671915
scalar IntersectionExampleScenario.node[27].appl 	VehicleRemoved 	0
scalar IntersectionExampleScenario.node[27].appl 	ArrivedAtDest 	1
scalar IntersectionExampleScenario.node[27].appl 	IntersectionEnterTime 	94.25
scalar IntersectionExampleScenario.node[27].appl 	IntersectionExitTime 	128.28923157579
scalar IntersectionExampleScenario.node[27].appl 	NumberOfCollisions 	0
scalar IntersectionExampleScenario.node[27].nic.phy80211p 	busyTime 	0
scalar IntersectionExampleScenario.node[27].nic.mac1609_4 	ReceivedUnicastPackets 	0
scalar IntersectionExampleScenario.node[27].nic.mac1609_4 	ReceivedBroadcasts 	0
scalar IntersectionExampleScenario.node[27].nic.mac1609_4 	SentPackets 	0
scalar IntersectionExampleScenario.node[27].nic.mac1609_4 	SNIRLostPackets 	0
scalar IntersectionExampleScenario.node[27].nic.mac1609_4 	RXTXLostPackets 	0
scalar IntersectionExampleScenario.node[27].nic.mac1609_4 	TotalLostPackets 	0
scalar IntersectionExampleScenario.node[27].nic.mac1609_4 	DroppedPacketsInMac 	0
scalar IntersectionExampleScenario.node[27].nic.mac1609_4 	TooLittleTime 	0
scalar IntersectionExampleScenario.node[27].nic.mac1609_4 	TimesIntoBackoff 	0
scalar IntersectionExampleScenario.node[27].nic.mac1609_4 	SlotsBackoff 	0
scalar IntersectionExampleScenario.node[27].nic.mac1609_4 	NumInternalContention 	0
scalar IntersectionExampleScenario.node[27].nic.mac1609_4 	totalBusyTime 	0
scalar IntersectionExampleScenario.node[27].veinsmobility 	startTime 	94.25
scalar IntersectionExampleScenario.node[27].veinsmobility 	totalTime 	50.5
scalar IntersectionExampleScenario.node[27].veinsmobility 	stopTime 	145
scalar IntersectionExampleScenario.node[27].veinsmobility 	minSpeed 	0
scalar IntersectionExampleScenario.node[27].veinsmobility 	maxSpeed 	15.02499961853
scalar IntersectionExampleScenario.node[27].veinsmobility 	totalDistance 	552.37341308594
scalar IntersectionExampleScenario.node[27].veinsmobility 	totalCO2Emission 	138.58913173579
scalar IntersectionExampleScenario.node[28].appl 	VehicleRemoved 	0
scalar IntersectionExampleScenario.node[28].appl 	ArrivedAtDest 	1
scalar IntersectionExampleScenario.node[28].appl 	IntersectionEnterTime 	96
scalar IntersectionExampleScenario.node[28].appl 	IntersectionExitTime 	129.06503899311
scalar IntersectionExampleScenario.node[28].appl 	NumberOfCollisions 	0
scalar IntersectionExampleScenario.node[28].nic.phy80211p 	busyTime 	0
scalar IntersectionExampleScenario.node[28].nic.mac1609_4 	ReceivedUnicastPackets 	0
scalar IntersectionExampleScenario.node[28].nic.mac1609_4 	ReceivedBroadcasts 	0
scalar IntersectionExampleScenario.node[28].nic.mac1609_4 	SentPackets 	0
scalar IntersectionExampleScenario.node[28].nic.mac1609_4 	SNIRLostPackets 	0
scalar IntersectionExampleScenario.node[28].nic.mac1609_4 	RXTXLostPackets 	0
scalar IntersectionExampleScenario.node[28].nic.mac1609_4 	TotalLostPackets 	0
scalar IntersectionExampleScenario.node[28].nic.mac1609_4 	DroppedPacketsInMac 	0
scalar IntersectionExampleScenario.node[28].nic.mac1609_4 	TooLittleTime 	0
scalar IntersectionExampleScenario.node[28].nic.mac1609_4 	TimesIntoBackoff 	0
scalar IntersectionExampleScenario.node[28].nic.mac1609_4 	SlotsBackoff 	0
scalar IntersectionExampleScenario.node[28].nic.mac1609_4 	NumInternalContention 	0
scalar IntersectionExampleScenario.node[28].nic.mac1609_4 	totalBusyTime 	0
scalar IntersectionExampleScenario.node[28].veinsmobility 	startTime 	96
scalar IntersectionExampleScenario.node[28].veinsmobility 	totalTime 	50
scalar IntersectionExampleScenario.node[28].veinsmobility 	stopTime 	146.25
scalar IntersectionExampleScenario.node[28].veinsmobility 	minSpeed 	0
scalar IntersectionExampleScenario.node[28].veinsmobility 	maxSpeed 	15.25
scalar IntersectionExampleScenario.node[28].veinsmobility 	totalDistance 	564.43968423412
scalar IntersectionExampleScenario.node[28].veinsmobility 	totalCO2Emission 	141.08735012261
scalar IntersectionExampleScenario.node[29].appl 	VehicleRemoved 	0
scalar IntersectionExampleScenario.node[29].appl 	ArrivedAtDest 	1
scalar IntersectionExampleScenario.node[29].appl 	IntersectionEnterTime 	107.75
scalar IntersectionExampleScenario.node[29].appl 	IntersectionExitTime 	132.3132182103
scalar IntersectionExampleScenario.node[29].appl 	NumberOfCollisions 	0
scalar IntersectionExampleScenario.node[29].nic.phy80211p 	busyTime 	0
scalar IntersectionExampleScenario.node[29].nic.mac1609_4 	ReceivedUnicastPackets 	0
scalar IntersectionExampleScenario.node[29].nic.mac1609_4 	ReceivedBroadcasts 	0
scalar IntersectionExampleScenario.node[29].nic.mac1609_4 	SentPackets 	0
scalar IntersectionExampleScenario.node[29].nic.mac1609_4 	SNIRLostPackets 	0
scalar IntersectionExampleScenario.node[29].nic.mac1609_4 	RXTXLostPackets 	0
scalar IntersectionExampleScenario.node[29].nic.mac1609_4 	TotalLostPackets 	0
scalar IntersectionExampleScenario.node[29].nic.mac1609_4 	DroppedPacketsInMac 	0
scalar IntersectionExampleScenario.node[29].nic.mac1609_4 	TooLittleTime 	0
scalar IntersectionExampleScenario.node[29].nic.mac1609_4 	TimesIntoBackoff 	0
scalar IntersectionExampleScenario.node[29].nic.mac1609_4 	SlotsBackoff 	0
scalar IntersectionExampleScenario.node[29].nic.mac1609_4 	NumInternalContention 	0
scalar IntersectionExampleScenario.node[29].nic.mac1609_4 	totalBusyTime 	0
scalar IntersectionExampleScenario.node[29].veinsmobility 	startTime 	107.75
scalar IntersectionExampleScenario.node[29].veinsmobility 	totalTime 	41.5
scalar IntersectionExampleScenario.node[29].veinsmobility 	stopTime 	149.5
scalar IntersectionExampleScenario.node[29].veinsmobility 	minSpeed 	5.6500000953674
scalar IntersectionExampleScenario.node[29].veinsmobility 	maxSpeed 	15.02499961853
scalar IntersectionExampleScenario.node[29].veinsmobility 	totalDistance 	551.74166189688
scalar IntersectionExampleScenario.node[29].veinsmobility 	totalCO2Emission 	131.1067694879
scalar IntersectionExampleScenario.node[32].appl 	VehicleRemoved 	0
scalar IntersectionExampleScenario.node[32].appl 	ArrivedAtDest 	1
scalar IntersectionExampleScenario.node[32].appl 	IntersectionEnterTime 	117.5
scalar IntersectionExampleScenario.node[32].appl 	IntersectionExitTime 	140.51461402691
scalar IntersectionExampleScenario.node[32].appl 	NumberOfCollisions 	0
scalar IntersectionExampleScenario.node[32].nic.phy80211p 	busyTime 	0
scalar IntersectionExampleScenario.node[32].nic.mac1609_4 	ReceivedUnicastPackets 	0
scalar IntersectionExampleScenario.node[32].nic.mac1609_4 	ReceivedBroadcasts 	0
scalar IntersectionExampleScenario.node[32].nic.mac1609_4 	SentPackets 	0
scalar IntersectionExampleScenario.node[32].nic.mac1609_4 	SNIRLostPackets 	0
scalar IntersectionExampleScenario.node[32].nic.mac1609_4 	RXTXLostPackets 	0
scalar IntersectionExampleScenario.node[32].nic.mac1609_4 	TotalLostPackets 	0
scalar IntersectionExampleScenario.node[32].nic.mac1609_4 	DroppedPacketsInMac 	0
scalar IntersectionExampleScenario.node[32].nic.mac1609_4 	TooLittleTime 	0
scalar IntersectionExampleScenario.node[32].nic.mac1609_4 	TimesIntoBackoff 	0
scalar IntersectionExampleScenario.node[32].nic.mac1609_4 	SlotsBackoff 	0
scalar IntersectionExampleScenario.node[32].nic.mac1609_4 	NumInternalContention 	0
scalar IntersectionExampleScenario.node[32].nic.mac1609_4 	totalBusyTime 	0
scalar IntersectionExampleScenario.node[32].veinsmobility 	startTime 	117.5
scalar IntersectionExampleScenario.node[32].veinsmobility 	totalTime 	39
scalar IntersectionExampleScenario.node[32].veinsmobility 	stopTime 	156.75
scalar IntersectionExampleScenario.node[32].veinsmobility 	minSpeed 	5.6500000953674
scalar IntersectionExampleScenario.node[32].veinsmobility 	maxSpeed 	16
scalar IntersectionExampleScenario.node[32].veinsmobility 	totalDistance 	551.94977433873
scalar IntersectionExampleScenario.node[32].veinsmobility 	totalCO2Emission 	125.13138713895
scalar IntersectionExampleScenario.node[33].appl 	VehicleRemoved 	0
scalar IntersectionExampleScenario.node[33].appl 	ArrivedAtDest 	1
scalar IntersectionExampleScenario.node[33].appl 	IntersectionEnterTime 	117.75
scalar IntersectionExampleScenario.node[33].appl 	IntersectionExitTime 	142.28275963257
scalar IntersectionExampleScenario.node[33].appl 	NumberOfCollisions 	0
scalar IntersectionExampleScenario.node[33].nic.phy80211p 	busyTime 	0
scalar IntersectionExampleScenario.node[33].nic.mac1609_4 	ReceivedUnicastPackets 	0
scalar IntersectionExampleScenario.node[33].nic.mac1609_4 	ReceivedBroadcasts 	0
scalar IntersectionExampleScenario.node[33].nic.mac1609_4 	SentPackets 	0
scalar IntersectionExampleScenario.node[33].nic.mac1609_4 	SNIRLostPackets 	0
scalar IntersectionExampleScenario.node[33].nic.mac1609_4 	RXTXLostPackets 	0
scalar IntersectionExampleScenario.node[33].nic.mac1609_4 	TotalLostPackets 	0
scalar IntersectionExampleScenario.node[33].nic.mac1609_4 	DroppedPacketsInMac 	0
scalar IntersectionExampleScenario.node[33].nic.mac1609_4 	TooLittleTime 	0
scalar IntersectionExampleScenario.node[33].nic.mac1609_4 	TimesIntoBackoff 	0
scalar IntersectionExampleScenario.node[33].nic.mac1609_4 	SlotsBackoff 	0
scalar IntersectionExampleScenario.node[33].nic.mac1609_4 	NumInternalContention 	0
scalar IntersectionExampleScenario.node[33].nic.mac1609_4 	totalBusyTime 	0
scalar IntersectionExampleScenario.node[33].veinsmobility 	startTime 	117.75
scalar IntersectionExampleScenario.node[33].veinsmobility 	totalTime 	40.25
scalar IntersectionExampleScenario.node[33].veinsmobility 	stopTime 	158.25
scalar IntersectionExampleScenario.node[33].veinsmobility 	minSpeed 	5.6500000953674
scalar IntersectionExampleScenario.node[33].veinsmobility 	maxSpeed 	16.125
scalar IntersectionExampleScenario.node[33].veinsmobility 	totalDistance 	578.91542816162
scalar IntersectionExampleScenario.node[33].veinsmobility 	totalCO2Emission 	130.97337402779
scalar IntersectionExampleScenario.node[30].appl 	VehicleRemoved 	0
scalar IntersectionExampleScenario.node[30].appl 	ArrivedAtDest 	1
scalar IntersectionExampleScenario.node[30].appl 	IntersectionEnterTime 	110.25
scalar IntersectionExampleScenario.node[30].appl 	IntersectionExitTime 	144.84720675545
scalar IntersectionExampleScenario.node[30].appl 	NumberOfCollisions 	0
scalar IntersectionExampleScenario.node[30].nic.phy80211p 	busyTime 	0
scalar IntersectionExampleScenario.node[30].nic.mac1609_4 	ReceivedUnicastPackets 	0
scalar IntersectionExampleScenario.node[30].nic.mac1609_4 	ReceivedBroadcasts 	0
scalar IntersectionExampleScenario.node[30].nic.mac1609_4 	SentPackets 	0
scalar IntersectionExampleScenario.node[30].nic.mac1609_4 	SNIRLostPackets 	0
scalar IntersectionExampleScenario.node[30].nic.mac1609_4 	RXTXLostPackets 	0
scalar IntersectionExampleScenario.node[30].nic.mac1609_4 	TotalLostPackets 	0
scalar IntersectionExampleScenario.node[30].nic.mac1609_4 	DroppedPacketsInMac 	0
scalar IntersectionExampleScenario.node[30].nic.mac1609_4 	TooLittleTime 	0
scalar IntersectionExampleScenario.node[30].nic.mac1609_4 	TimesIntoBackoff 	0
scalar IntersectionExampleScenario.node[30].nic.mac1609_4 	SlotsBackoff 	0
scalar IntersectionExampleScenario.node[30].nic.mac1609_4 	NumInternalContention 	0
scalar IntersectionExampleScenario.node[30].nic.mac1609_4 	totalBusyTime 	0
scalar IntersectionExampleScenario.node[30].veinsmobility 	startTime 	110.25
scalar IntersectionExampleScenario.node[30].veinsmobility 	totalTime 	51.25
scalar IntersectionExampleScenario.node[30].veinsmobility 	stopTime 	161.75
scalar IntersectionExampleScenario.node[30].veinsmobility 	minSpeed 	0
scalar IntersectionExampleScenario.node[30].veinsmobility 	maxSpeed 	15.02499961853
scalar IntersectionExampleScenario.node[30].veinsmobility 	totalDistance 	550.91413988223
scalar IntersectionExampleScenario.node[30].veinsmobility 	totalCO2Emission 	138.47953200188
scalar IntersectionExampleScenario.node[34].appl 	VehicleRemoved 	0
scalar IntersectionExampleScenario.node[34].appl 	ArrivedAtDest 	1
scalar IntersectionExampleScenario.node[34].appl 	IntersectionEnterTime 	120.25
scalar IntersectionExampleScenario.node[34].appl 	IntersectionExitTime 	147.12016398175
scalar IntersectionExampleScenario.node[34].appl 	NumberOfCollisions 	0
scalar IntersectionExampleScenario.node[34].nic.phy80211p 	busyTime 	0
scalar IntersectionExampleScenario.node[34].nic.mac1609_4 	ReceivedUnicastPackets 	0
scalar IntersectionExampleScenario.node[34].nic.mac1609_4 	ReceivedBroadcasts 	0
scalar IntersectionExampleScenario.node[34].nic.mac1609_4 	SentPackets 	0
scalar IntersectionExampleScenario.node[34].nic.mac1609_4 	SNIRLostPackets 	0
scalar IntersectionExampleScenario.node[34].nic.mac1609_4 	RXTXLostPackets 	0
scalar IntersectionExampleScenario.node[34].nic.mac1609_4 	TotalLostPackets 	0
scalar IntersectionExampleScenario.node[34].nic.mac1609_4 	DroppedPacketsInMac 	0
scalar IntersectionExampleScenario.node[34].nic.mac1609_4 	TooLittleTime 	0
scalar IntersectionExampleScenario.node[34].nic.mac1609_4 	TimesIntoBackoff 	0
scalar IntersectionExampleScenario.node[34].nic.mac1609_4 	SlotsBackoff 	0
scalar IntersectionExampleScenario.node[34].nic.mac1609_4 	NumInternalContention 	0
scalar IntersectionExampleScenario.node[34].nic.mac1609_4 	totalBusyTime 	0
scalar IntersectionExampleScenario.node[34].veinsmobility 	startTime 	120.25
scalar IntersectionExampleScenario.node[34].veinsmobility 	totalTime 	42.75
scalar IntersectionExampleScenario.node[34].veinsmobility 	stopTime 	163.25
scalar IntersectionExampleScenario.node[34].veinsmobility 	minSpeed 	5.1822938919067
scalar IntersectionExampleScenario.node[34].veinsmobility 	maxSpeed 	16.5
scalar IntersectionExampleScenario.node[34].veinsmobility 	totalDistance 	542.9278219943
scalar IntersectionExampleScenario.node[34].veinsmobility 	totalCO2Emission 	141.11496131584
scalar IntersectionExampleScenario.node[31].appl 	VehicleRemoved 	0
scalar IntersectionExampleScenario.node[31].appl 	ArrivedAtDest 	1
scalar IntersectionExampleScenario.node[31].appl 	IntersectionEnterTime 	115.25
scalar IntersectionExampleScenario.node[31].appl 	IntersectionExitTime 	147.00423046804
scalar IntersectionExampleScenario.node[31].appl 	NumberOfCollisions 	0
scalar IntersectionExampleScenario.node[31].nic.phy80211p 	busyTime 	0
scalar IntersectionExampleScenario.node[31].nic.mac1609_4 	ReceivedUnicastPackets 	0
scalar IntersectionExampleScenario.node[31].nic.mac1609_4 	ReceivedBroadcasts 	0
scalar IntersectionExampleScenario.node[31].nic.mac1609_4 	SentPackets 	0
scalar IntersectionExampleScenario.node[31].nic.mac1609_4 	SNIRLostPackets 	0
scalar IntersectionExampleScenario.node[31].nic.mac1609_4 	RXTXLostPackets 	0
scalar IntersectionExampleScenario.node[31].nic.mac1609_4 	TotalLostPackets 	0
scalar IntersectionExampleScenario.node[31].nic.mac1609_4 	DroppedPacketsInMac 	0
scalar IntersectionExampleScenario.node[31].nic.mac1609_4 	TooLittleTime 	0
scalar IntersectionExampleScenario.node[31].nic.mac1609_4 	TimesIntoBackoff 	0
scalar IntersectionExampleScenario.node[31].nic.mac1609_4 	SlotsBackoff 	0
scalar IntersectionExampleScenario.node[31].nic.mac1609_4 	NumInternalContention 	0
scalar IntersectionExampleScenario.node[31].nic.mac1609_4 	totalBusyTime 	0
scalar IntersectionExampleScenario.node[31].veinsmobility 	startTime 	115.25
scalar IntersectionExampleScenario.node[31].veinsmobility 	totalTime 	48.25
scalar IntersectionExampleScenario.node[31].veinsmobility 	stopTime 	163.75
scalar IntersectionExampleScenario.node[31].veinsmobility 	minSpeed 	0
scalar IntersectionExampleScenario.node[31].veinsmobility 	maxSpeed 	15.64999961853
scalar IntersectionExampleScenario.node[31].veinsmobility 	totalDistance 	543.5258193429
scalar IntersectionExampleScenario.node[31].veinsmobility 	totalCO2Emission 	140.93624590227
scalar IntersectionExampleScenario.node[37].appl 	VehicleRemoved 	0
scalar IntersectionExampleScenario.node[37].appl 	ArrivedAtDest 	1
scalar IntersectionExampleScenario.node[37].appl 	IntersectionEnterTime 	127.5
scalar IntersectionExampleScenario.node[37].appl 	IntersectionExitTime 	150.80713368228
scalar IntersectionExampleScenario.node[37].appl 	NumberOfCollisions 	0
scalar IntersectionExampleScenario.node[37].nic.phy80211p 	busyTime 	0
scalar IntersectionExampleScenario.node[37].nic.mac1609_4 	ReceivedUnicastPackets 	0
scalar IntersectionExampleScenario.node[37].nic.mac1609_4 	ReceivedBroadcasts 	0
scalar IntersectionExampleScenario.node[37].nic.mac1609_4 	SentPackets 	0
scalar IntersectionExampleScenario.node[37].nic.mac1609_4 	SNIRLostPackets 	0
scalar IntersectionExampleScenario.node[37].nic.mac1609_4 	RXTXLostPackets 	0
scalar IntersectionExampleScenario.node[37].nic.mac1609_4 	TotalLostPackets 	0
scalar IntersectionExampleScenario.node[37].nic.mac1609_4 	DroppedPacketsInMac 	0
scalar IntersectionExampleScenario.node[37].nic.mac1609_4 	TooLittleTime 	0
scalar IntersectionExampleScenario.node[37].nic.mac1609_4 	TimesIntoBackoff 	0
scalar IntersectionExampleScenario.node[37].nic.mac1609_4 	SlotsBackoff 	0
scalar IntersectionExampleScenario.node[37].nic.mac1609_4 	NumInternalContention 	0
scalar IntersectionExampleScenario.node[37].nic.mac1609_4 	totalBusyTime 	0
scalar IntersectionExampleScenario.node[37].veinsmobility 	startTime 	127.5
scalar IntersectionExampleScenario.node[37].veinsmobility 	totalTime 	39.5
scalar IntersectionExampleScenario.node[37].veinsmobility 	stopTime 	167.25
scalar IntersectionExampleScenario.node[37].veinsmobility 	minSpeed 	5.6500000953674
scalar IntersectionExampleScenario.node[37].veinsmobility 	maxSpeed 	15.5
scalar IntersectionExampleScenario.node[37].veinsmobility 	totalDistance 	553.3215713501
scalar IntersectionExampleScenario.node[37].veinsmobility 	totalCO2Emission 	123.50763069569
scalar IntersectionExampleScenario.node[38].appl 	VehicleRemoved 	0
scalar IntersectionExampleScenario.node[38].appl 	ArrivedAtDest 	1
scalar IntersectionExampleScenario.node[38].appl 	IntersectionEnterTime 	133.25
scalar IntersectionExampleScenario.node[38].appl 	IntersectionExitTime 	155.81344705506
scalar IntersectionExampleScenario.node[38].appl 	NumberOfCollisions 	0
scalar IntersectionExampleScenario.node[38].nic.phy80211p 	busyTime 	0
scalar IntersectionExampleScenario.node[38].nic.mac1609_4 	ReceivedUnicastPackets 	0
scalar IntersectionExampleScenario.node[38].nic.mac1609_4 	ReceivedBroadcasts 	0
scalar IntersectionExampleScenario.node[38].nic.mac1609_4 	SentPackets 	0
scalar IntersectionExampleScenario.node[38].nic.mac1609_4 	SNIRLostPackets 	0
scalar IntersectionExampleScenario.node[38].nic.mac1609_4 	RXTXLostPackets 	0
scalar IntersectionExampleScenario.node[38].nic.mac1609_4 	TotalLostPackets 	0
scalar IntersectionExampleScenario.node[38].nic.mac1609_4 	DroppedPacketsInMac 	0
scalar IntersectionExampleScenario.node[38].nic.mac1609_4 	TooLittleTime 	0
scalar IntersectionExampleScenario.node[38].nic.mac1609_4 	TimesIntoBackoff 	0
scalar IntersectionExampleScenario.node[38].nic.mac1609_4 	SlotsBackoff 	0
scalar IntersectionExampleScenario.node[38].nic.mac1609_4 	NumInternalContention 	0
scalar IntersectionExampleScenario.node[38].nic.mac1609_4 	totalBusyTime 	0
scalar IntersectionExampleScenario.node[38].veinsmobility 	startTime 	133.25
scalar IntersectionExampleScenario.node[38].veinsmobility 	totalTime 	38
scalar IntersectionExampleScenario.node[38].veinsmobility 	stopTime 	171.5
scalar IntersectionExampleScenario.node[38].veinsmobility 	minSpeed 	5.6500000953674
scalar IntersectionExampleScenario.node[38].veinsmobility 	maxSpeed 	15.715113639832
scalar IntersectionExampleScenario.node[38].veinsmobility 	totalDistance 	552.057472229
scalar IntersectionExampleScenario.node[38].veinsmobility 	totalCO2Emission 	120.0629578166
scalar IntersectionExampleScenario.node[39].appl 	VehicleRemoved 	0
scalar IntersectionExampleScenario.node[39].appl 	ArrivedAtDest 	1
scalar IntersectionExampleScenario.node[39].appl 	IntersectionEnterTime 	133.25
scalar IntersectionExampleScenario.node[39].appl 	IntersectionExitTime 	157.30470291426
scalar IntersectionExampleScenario.node[39].appl 	NumberOfCollisions 	0
scalar IntersectionExampleScenario.node[39].nic.phy80211p 	busyTime 	0
scalar IntersectionExampleScenario.node[39].nic.mac1609_4 	ReceivedUnicastPackets 	0
scalar IntersectionExampleScenario.node[39].nic.mac1609_4 	ReceivedBroadcasts 	0
scalar IntersectionExampleScenario.node[39].nic.mac1609_4 	SentPackets 	0
scalar IntersectionExampleScenario.node[39].nic.mac1609_4 	SNIRLostPackets 	0
scalar IntersectionExampleScenario.node[39].nic.mac1609_4 	RXTXLostPackets 	0
scalar IntersectionExampleScenario.node[39].nic.mac1609_4 	TotalLostPackets 	0
scalar IntersectionExampleScenario.node[39].nic.mac1609_4 	DroppedPacketsInMac 	0
scalar IntersectionExampleScenario.node[39].nic.mac1609_4 	TooLittleTime 	0
scalar IntersectionExampleScenario.node[39].nic.mac1609_4 	TimesIntoBackoff 	0
scalar IntersectionExampleScenario.node[39].nic.mac1609_4 	SlotsBackoff 	0
scalar IntersectionExampleScenario.node[39].nic.mac1609_4 	NumInternalContention 	0
scalar IntersectionExampleScenario.node[39].nic.mac1609_4 	totalBusyTime 	0
scalar IntersectionExampleScenario.node[39].veinsmobility 	startTime 	133.25
scalar IntersectionExampleScenario.node[39].veinsmobility 	totalTime 	41
scalar IntersectionExampleScenario.node[39].veinsmobility 	stopTime 	174.5
scalar IntersectionExampleScenario.node[39].veinsmobility 	minSpeed 	5.6500000953674
scalar IntersectionExampleScenario.node[39].veinsmobility 	maxSpeed 	15.02499961853
scalar IntersectionExampleScenario.node[39].veinsmobility 	totalDistance 	552.17911926969
scalar IntersectionExampleScenario.node[39].veinsmobility 	totalCO2Emission 	118.90488403687
scalar IntersectionExampleScenario.node[36].appl 	VehicleRemoved 	0
scalar IntersectionExampleScenario.node[36].appl 	ArrivedAtDest 	1
scalar IntersectionExampleScenario.node[36].appl 	IntersectionEnterTime 	124.25
scalar IntersectionExampleScenario.node[36].appl 	IntersectionExitTime 	158.55089985212
scalar IntersectionExampleScenario.node[36].appl 	NumberOfCollisions 	0
scalar IntersectionExampleScenario.node[36].nic.phy80211p 	busyTime 	0
scalar IntersectionExampleScenario.node[36].nic.mac1609_4 	ReceivedUnicastPackets 	0
scalar IntersectionExampleScenario.node[36].nic.mac1609_4 	ReceivedBroadcasts 	0
scalar IntersectionExampleScenario.node[36].nic.mac1609_4 	SentPackets 	0
scalar IntersectionExampleScenario.node[36].nic.mac1609_4 	SNIRLostPackets 	0
scalar IntersectionExampleScenario.node[36].nic.mac1609_4 	RXTXLostPackets 	0
scalar IntersectionExampleScenario.node[36].nic.mac1609_4 	TotalLostPackets 	0
scalar IntersectionExampleScenario.node[36].nic.mac1609_4 	DroppedPacketsInMac 	0
scalar IntersectionExampleScenario.node[36].nic.mac1609_4 	TooLittleTime 	0
scalar IntersectionExampleScenario.node[36].nic.mac1609_4 	TimesIntoBackoff 	0
scalar IntersectionExampleScenario.node[36].nic.mac1609_4 	SlotsBackoff 	0
scalar IntersectionExampleScenario.node[36].nic.mac1609_4 	NumInternalContention 	0
scalar IntersectionExampleScenario.node[36].nic.mac1609_4 	totalBusyTime 	0
scalar IntersectionExampleScenario.node[36].veinsmobility 	startTime 	124.25
scalar IntersectionExampleScenario.node[36].veinsmobility 	totalTime 	50.75
scalar IntersectionExampleScenario.node[36].veinsmobility 	stopTime 	175.25
scalar IntersectionExampleScenario.node[36].veinsmobility 	minSpeed 	0
scalar IntersectionExampleScenario.node[36].veinsmobility 	maxSpeed 	15.875
scalar IntersectionExampleScenario.node[36].veinsmobility 	totalDistance 	543.31525327117
scalar IntersectionExampleScenario.node[36].veinsmobility 	totalCO2Emission 	144.1542257651
scalar IntersectionExampleScenario.node[35].appl 	VehicleRemoved 	0
scalar IntersectionExampleScenario.node[35].appl 	ArrivedAtDest 	1
scalar IntersectionExampleScenario.node[35].appl 	IntersectionEnterTime 	124
scalar IntersectionExampleScenario.node[35].appl 	IntersectionExitTime 	159.37188079697
scalar IntersectionExampleScenario.node[35].appl 	NumberOfCollisions 	0
scalar IntersectionExampleScenario.node[35].nic.phy80211p 	busyTime 	0
scalar IntersectionExampleScenario.node[35].nic.mac1609_4 	ReceivedUnicastPackets 	0
scalar IntersectionExampleScenario.node[35].nic.mac1609_4 	ReceivedBroadcasts 	0
scalar IntersectionExampleScenario.node[35].nic.mac1609_4 	SentPackets 	0
scalar IntersectionExampleScenario.node[35].nic.mac1609_4 	SNIRLostPackets 	0
scalar IntersectionExampleScenario.node[35].nic.mac1609_4 	RXTXLostPackets 	0
scalar IntersectionExampleScenario.node[35].nic.mac1609_4 	TotalLostPackets 	0
scalar IntersectionExampleScenario.node[35].nic.mac1609_4 	DroppedPacketsInMac 	0
scalar IntersectionExampleScenario.node[35].nic.mac1609_4 	TooLittleTime 	0
scalar IntersectionExampleScenario.node[35].nic.mac1609_4 	TimesIntoBackoff 	0
[...]
scalar IntersectionExampleScenario.node[540].veinsmobility 	totalDistance 	339.85691805332
scalar IntersectionExampleScenario.node[540].veinsmobility 	totalCO2Emission 	89.70652197364
scalar IntersectionExampleScenario.node[541].appl 	VehicleRemoved 	0
scalar IntersectionExampleScenario.node[541].appl 	ArrivedAtDest 	0
scalar IntersectionExampleScenario.node[541].appl 	IntersectionEnterTime 	1774
scalar IntersectionExampleScenario.node[541].appl 	IntersectionExitTime 	-1
scalar IntersectionExampleScenario.node[541].appl 	NumberOfCollisions 	0
scalar IntersectionExampleScenario.node[541].nic.phy80211p 	busyTime 	0
scalar IntersectionExampleScenario.node[541].nic.mac1609_4 	ReceivedUnicastPackets 	0
scalar IntersectionExampleScenario.node[541].nic.mac1609_4 	ReceivedBroadcasts 	0
scalar IntersectionExampleScenario.node[541].nic.mac1609_4 	SentPackets 	0
scalar IntersectionExampleScenario.node[541].nic.mac1609_4 	SNIRLostPackets 	0
scalar IntersectionExampleScenario.node[541].nic.mac1609_4 	RXTXLostPackets 	0
scalar IntersectionExampleScenario.node[541].nic.mac1609_4 	TotalLostPackets 	0
scalar IntersectionExampleScenario.node[541].nic.mac1609_4 	DroppedPacketsInMac 	0
scalar IntersectionExampleScenario.node[541].nic.mac1609_4 	TooLittleTime 	0
scalar IntersectionExampleScenario.node[541].nic.mac1609_4 	TimesIntoBackoff 	0
scalar IntersectionExampleScenario.node[541].nic.mac1609_4 	SlotsBackoff 	0
scalar IntersectionExampleScenario.node[541].nic.mac1609_4 	NumInternalContention 	0
scalar IntersectionExampleScenario.node[541].nic.mac1609_4 	totalBusyTime 	0
scalar IntersectionExampleScenario.node[541].veinsmobility 	startTime 	1774
scalar IntersectionExampleScenario.node[541].veinsmobility 	totalTime 	26
scalar IntersectionExampleScenario.node[541].veinsmobility 	stopTime 	1800
scalar IntersectionExampleScenario.node[541].veinsmobility 	minSpeed 	3.8720450401306
scalar IntersectionExampleScenario.node[541].veinsmobility 	maxSpeed 	15.64999961853
scalar IntersectionExampleScenario.node[541].veinsmobility 	totalDistance 	277.06649780273
scalar IntersectionExampleScenario.node[541].veinsmobility 	totalCO2Emission 	70.525752664263
scalar IntersectionExampleScenario.node[542].appl 	VehicleRemoved 	0
scalar IntersectionExampleScenario.node[542].appl 	ArrivedAtDest 	0
scalar IntersectionExampleScenario.node[542].appl 	IntersectionEnterTime 	1775.5
scalar IntersectionExampleScenario.node[542].appl 	IntersectionExitTime 	-1
scalar IntersectionExampleScenario.node[542].appl 	NumberOfCollisions 	0
scalar IntersectionExampleScenario.node[542].nic.phy80211p 	busyTime 	0
scalar IntersectionExampleScenario.node[542].nic.mac1609_4 	ReceivedUnicastPackets 	0
scalar IntersectionExampleScenario.node[542].nic.mac1609_4 	ReceivedBroadcasts 	0
scalar IntersectionExampleScenario.node[542].nic.mac1609_4 	SentPackets 	0
scalar IntersectionExampleScenario.node[542].nic.mac1609_4 	SNIRLostPackets 	0
scalar IntersectionExampleScenario.node[542].nic.mac1609_4 	RXTXLostPackets 	0
scalar IntersectionExampleScenario.node[542].nic.mac1609_4 	TotalLostPackets 	0
scalar IntersectionExampleScenario.node[542].nic.mac1609_4 	DroppedPacketsInMac 	0
scalar IntersectionExampleScenario.node[542].nic.mac1609_4 	TooLittleTime 	0
scalar IntersectionExampleScenario.node[542].nic.mac1609_4 	TimesIntoBackoff 	0
scalar IntersectionExampleScenario.node[542].nic.mac1609_4 	SlotsBackoff 	0
scalar IntersectionExampleScenario.node[542].nic.mac1609_4 	NumInternalContention 	0
scalar IntersectionExampleScenario.node[542].nic.mac1609_4 	totalBusyTime 	0
scalar IntersectionExampleScenario.node[542].veinsmobility 	startTime 	1775.5
scalar IntersectionExampleScenario.node[542].veinsmobility 	totalTime 	24.5
scalar IntersectionExampleScenario.node[542].veinsmobility 	stopTime 	1800
scalar IntersectionExampleScenario.node[542].veinsmobility 	minSpeed 	0
scalar IntersectionExampleScenario.node[542].veinsmobility 	maxSpeed 	15.02499961853
scalar IntersectionExampleScenario.node[542].veinsmobility 	totalDistance 	311.47969818115
scalar IntersectionExampleScenario.node[542].veinsmobility 	totalCO2Emission 	66.741783897044
scalar IntersectionExampleScenario.node[543].appl 	VehicleRemoved 	0
scalar IntersectionExampleScenario.node[543].appl 	ArrivedAtDest 	0
scalar IntersectionExampleScenario.node[543].appl 	IntersectionEnterTime 	1776.25
scalar IntersectionExampleScenario.node[543].appl 	IntersectionExitTime 	-1
scalar IntersectionExampleScenario.node[543].appl 	NumberOfCollisions 	0
scalar IntersectionExampleScenario.node[543].nic.phy80211p 	busyTime 	0
scalar IntersectionExampleScenario.node[543].nic.mac1609_4 	ReceivedUnicastPackets 	0
scalar IntersectionExampleScenario.node[543].nic.mac1609_4 	ReceivedBroadcasts 	0
scalar IntersectionExampleScenario.node[543].nic.mac1609_4 	SentPackets 	0
scalar IntersectionExampleScenario.node[543].nic.mac1609_4 	SNIRLostPackets 	0
scalar IntersectionExampleScenario.node[543].nic.mac1609_4 	RXTXLostPackets 	0
scalar IntersectionExampleScenario.node[543].nic.mac1609_4 	TotalLostPackets 	0
scalar IntersectionExampleScenario.node[543].nic.mac1609_4 	DroppedPacketsInMac 	0
scalar IntersectionExampleScenario.node[543].nic.mac1609_4 	TooLittleTime 	0
scalar IntersectionExampleScenario.node[543].nic.mac1609_4 	TimesIntoBackoff 	0
scalar IntersectionExampleScenario.node[543].nic.mac1609_4 	SlotsBackoff 	0
scalar IntersectionExampleScenario.node[543].nic.mac1609_4 	NumInternalContention 	0
scalar IntersectionExampleScenario.node[543].nic.mac1609_4 	totalBusyTime 	0
scalar IntersectionExampleScenario.node[543].veinsmobility 	startTime 	1776.25
scalar IntersectionExampleScenario.node[543].veinsmobility 	totalTime 	23.75
scalar IntersectionExampleScenario.node[543].veinsmobility 	stopTime 	1800
scalar IntersectionExampleScenario.node[543].veinsmobility 	minSpeed 	0
scalar IntersectionExampleScenario.node[543].veinsmobility 	maxSpeed 	16.27499961853
scalar IntersectionExampleScenario.node[543].veinsmobility 	totalDistance 	293.62500762939
scalar IntersectionExampleScenario.node[543].veinsmobility 	totalCO2Emission 	74.33994471728
scalar IntersectionExampleScenario.node[544].appl 	VehicleRemoved 	0
scalar IntersectionExampleScenario.node[544].appl 	ArrivedAtDest 	0
scalar IntersectionExampleScenario.node[544].appl 	IntersectionEnterTime 	1780.75
scalar IntersectionExampleScenario.node[544].appl 	IntersectionExitTime 	-1
scalar IntersectionExampleScenario.node[544].appl 	NumberOfCollisions 	0
scalar IntersectionExampleScenario.node[544].nic.phy80211p 	busyTime 	0
scalar IntersectionExampleScenario.node[544].nic.mac1609_4 	ReceivedUnicastPackets 	0
scalar IntersectionExampleScenario.node[544].nic.mac1609_4 	ReceivedBroadcasts 	0
scalar IntersectionExampleScenario.node[544].nic.mac1609_4 	SentPackets 	0
scalar IntersectionExampleScenario.node[544].nic.mac1609_4 	SNIRLostPackets 	0
scalar IntersectionExampleScenario.node[544].nic.mac1609_4 	RXTXLostPackets 	0
scalar IntersectionExampleScenario.node[544].nic.mac1609_4 	TotalLostPackets 	0
scalar IntersectionExampleScenario.node[544].nic.mac1609_4 	DroppedPacketsInMac 	0
scalar IntersectionExampleScenario.node[544].nic.mac1609_4 	TooLittleTime 	0
scalar IntersectionExampleScenario.node[544].nic.mac1609_4 	TimesIntoBackoff 	0
scalar IntersectionExampleScenario.node[544].nic.mac1609_4 	SlotsBackoff 	0
scalar IntersectionExampleScenario.node[544].nic.mac1609_4 	NumInternalContention 	0
scalar IntersectionExampleScenario.node[544].nic.mac1609_4 	totalBusyTime 	0
scalar IntersectionExampleScenario.node[544].veinsmobility 	startTime 	1780.75
scalar IntersectionExampleScenario.node[544].veinsmobility 	totalTime 	19.25
scalar IntersectionExampleScenario.node[544].veinsmobility 	stopTime 	1800
scalar IntersectionExampleScenario.node[544].veinsmobility 	minSpeed 	5.6500000953674
scalar IntersectionExampleScenario.node[544].veinsmobility 	maxSpeed 	15.748682975769
scalar IntersectionExampleScenario.node[544].veinsmobility 	totalDistance 	232.82015991211
scalar IntersectionExampleScenario.node[544].veinsmobility 	totalCO2Emission 	59.946778769676
scalar IntersectionExampleScenario.node[545].appl 	VehicleRemoved 	0
scalar IntersectionExampleScenario.node[545].appl 	ArrivedAtDest 	0
scalar IntersectionExampleScenario.node[545].appl 	IntersectionEnterTime 	1781
scalar IntersectionExampleScenario.node[545].appl 	IntersectionExitTime 	-1
scalar IntersectionExampleScenario.node[545].appl 	NumberOfCollisions 	0
scalar IntersectionExampleScenario.node[545].nic.phy80211p 	busyTime 	0
scalar IntersectionExampleScenario.node[545].nic.mac1609_4 	ReceivedUnicastPackets 	0
scalar IntersectionExampleScenario.node[545].nic.mac1609_4 	ReceivedBroadcasts 	0
scalar IntersectionExampleScenario.node[545].nic.mac1609_4 	SentPackets 	0
scalar IntersectionExampleScenario.node[545].nic.mac1609_4 	SNIRLostPackets 	0
scalar IntersectionExampleScenario.node[545].nic.mac1609_4 	RXTXLostPackets 	0
scalar IntersectionExampleScenario.node[545].nic.mac1609_4 	TotalLostPackets 	0
scalar IntersectionExampleScenario.node[545].nic.mac1609_4 	DroppedPacketsInMac 	0
scalar IntersectionExampleScenario.node[545].nic.mac1609_4 	TooLittleTime 	0
scalar IntersectionExampleScenario.node[545].nic.mac1609_4 	TimesIntoBackoff 	0
scalar IntersectionExampleScenario.node[545].nic.mac1609_4 	SlotsBackoff 	0
scalar IntersectionExampleScenario.node[545].nic.mac1609_4 	NumInternalContention 	0
scalar IntersectionExampleScenario.node[545].nic.mac1609_4 	totalBusyTime 	0
scalar IntersectionExampleScenario.node[545].veinsmobility 	startTime 	1781
scalar IntersectionExampleScenario.node[545].veinsmobility 	totalTime 	19
scalar IntersectionExampleScenario.node[545].veinsmobility 	stopTime 	1800
scalar IntersectionExampleScenario.node[545].veinsmobility 	minSpeed 	5.6500000953674
scalar IntersectionExampleScenario.node[545].veinsmobility 	maxSpeed 	16.019559860229
scalar IntersectionExampleScenario.node[545].veinsmobility 	totalDistance 	239.66027832031
scalar IntersectionExampleScenario.node[545].veinsmobility 	totalCO2Emission 	59.978398174015
scalar IntersectionExampleScenario.node[546].appl 	VehicleRemoved 	0
scalar IntersectionExampleScenario.node[546].appl 	ArrivedAtDest 	0
scalar IntersectionExampleScenario.node[546].appl 	IntersectionEnterTime 	1784.25
scalar IntersectionExampleScenario.node[546].appl 	IntersectionExitTime 	-1
scalar IntersectionExampleScenario.node[546].appl 	NumberOfCollisions 	0
scalar IntersectionExampleScenario.node[546].nic.phy80211p 	busyTime 	0
scalar IntersectionExampleScenario.node[546].nic.mac1609_4 	ReceivedUnicastPackets 	0
scalar IntersectionExampleScenario.node[546].nic.mac1609_4 	ReceivedBroadcasts 	0
scalar IntersectionExampleScenario.node[546].nic.mac1609_4 	SentPackets 	0
scalar IntersectionExampleScenario.node[546].nic.mac1609_4 	SNIRLostPackets 	0
scalar IntersectionExampleScenario.node[546].nic.mac1609_4 	RXTXLostPackets 	0
scalar IntersectionExampleScenario.node[546].nic.mac1609_4 	TotalLostPackets 	0
scalar IntersectionExampleScenario.node[546].nic.mac1609_4 	DroppedPacketsInMac 	0
scalar IntersectionExampleScenario.node[546].nic.mac1609_4 	TooLittleTime 	0
scalar IntersectionExampleScenario.node[546].nic.mac1609_4 	TimesIntoBackoff 	0
scalar IntersectionExampleScenario.node[546].nic.mac1609_4 	SlotsBackoff 	0
scalar IntersectionExampleScenario.node[546].nic.mac1609_4 	NumInternalContention 	0
scalar IntersectionExampleScenario.node[546].nic.mac1609_4 	totalBusyTime 	0
scalar IntersectionExampleScenario.node[546].veinsmobility 	startTime 	1784.25
scalar IntersectionExampleScenario.node[546].veinsmobility 	totalTime 	15.75
scalar IntersectionExampleScenario.node[546].veinsmobility 	stopTime 	1800
scalar IntersectionExampleScenario.node[546].veinsmobility 	minSpeed 	5.6500000953674
scalar IntersectionExampleScenario.node[546].veinsmobility 	maxSpeed 	16.27499961853
scalar IntersectionExampleScenario.node[546].veinsmobility 	totalDistance 	226.8928527832
scalar IntersectionExampleScenario.node[546].veinsmobility 	totalCO2Emission 	60.387045149129
scalar IntersectionExampleScenario.node[547].appl 	VehicleRemoved 	0
scalar IntersectionExampleScenario.node[547].appl 	ArrivedAtDest 	0
scalar IntersectionExampleScenario.node[547].appl 	IntersectionEnterTime 	1789.75
scalar IntersectionExampleScenario.node[547].appl 	IntersectionExitTime 	-1
scalar IntersectionExampleScenario.node[547].appl 	NumberOfCollisions 	0
scalar IntersectionExampleScenario.node[547].nic.phy80211p 	busyTime 	0
scalar IntersectionExampleScenario.node[547].nic.mac1609_4 	ReceivedUnicastPackets 	0
scalar IntersectionExampleScenario.node[547].nic.mac1609_4 	ReceivedBroadcasts 	0
scalar IntersectionExampleScenario.node[547].nic.mac1609_4 	SentPackets 	0
scalar IntersectionExampleScenario.node[547].nic.mac1609_4 	SNIRLostPackets 	0
scalar IntersectionExampleScenario.node[547].nic.mac1609_4 	RXTXLostPackets 	0
scalar IntersectionExampleScenario.node[547].nic.mac1609_4 	TotalLostPackets 	0
scalar IntersectionExampleScenario.node[547].nic.mac1609_4 	DroppedPacketsInMac 	0
scalar IntersectionExampleScenario.node[547].nic.mac1609_4 	TooLittleTime 	0
scalar IntersectionExampleScenario.node[547].nic.mac1609_4 	TimesIntoBackoff 	0
scalar IntersectionExampleScenario.node[547].nic.mac1609_4 	SlotsBackoff 	0
scalar IntersectionExampleScenario.node[547].nic.mac1609_4 	NumInternalContention 	0
scalar IntersectionExampleScenario.node[547].nic.mac1609_4 	totalBusyTime 	0
scalar IntersectionExampleScenario.node[547].veinsmobility 	startTime 	1789.75
scalar IntersectionExampleScenario.node[547].veinsmobility 	totalTime 	10.25
scalar IntersectionExampleScenario.node[547].veinsmobility 	stopTime 	1800
scalar IntersectionExampleScenario.node[547].veinsmobility 	minSpeed 	5.6500000953674
scalar IntersectionExampleScenario.node[547].veinsmobility 	maxSpeed 	15.64999961853
scalar IntersectionExampleScenario.node[547].veinsmobility 	totalDistance 	137.66436767578
scalar IntersectionExampleScenario.node[547].veinsmobility 	totalCO2Emission 	46.733876725864
scalar IntersectionExampleScenario.node[548].appl 	VehicleRemoved 	0
scalar IntersectionExampleScenario.node[548].appl 	ArrivedAtDest 	0
scalar IntersectionExampleScenario.node[548].appl 	IntersectionEnterTime 	1792.75
scalar IntersectionExampleScenario.node[548].appl 	IntersectionExitTime 	-1
scalar IntersectionExampleScenario.node[548].appl 	NumberOfCollisions 	0
scalar IntersectionExampleScenario.node[548].nic.phy80211p 	busyTime 	0
scalar IntersectionExampleScenario.node[548].nic.mac1609_4 	ReceivedUnicastPackets 	0
scalar IntersectionExampleScenario.node[548].nic.mac1609_4 	ReceivedBroadcasts 	0
scalar IntersectionExampleScenario.node[548].nic.mac1609_4 	SentPackets 	0
scalar IntersectionExampleScenario.node[548].nic.mac1609_4 	SNIRLostPackets 	0
scalar IntersectionExampleScenario.node[548].nic.mac1609_4 	RXTXLostPackets 	0
scalar IntersectionExampleScenario.node[548].nic.mac1609_4 	TotalLostPackets 	0
scalar IntersectionExampleScenario.node[548].nic.mac1609_4 	DroppedPacketsInMac 	0
scalar IntersectionExampleScenario.node[548].nic.mac1609_4 	TooLittleTime 	0
scalar IntersectionExampleScenario.node[548].nic.mac1609_4 	TimesIntoBackoff 	0
scalar IntersectionExampleScenario.node[548].nic.mac1609_4 	SlotsBackoff 	0
scalar IntersectionExampleScenario.node[548].nic.mac1609_4 	NumInternalContention 	0
scalar IntersectionExampleScenario.node[548].nic.mac1609_4 	totalBusyTime 	0
scalar IntersectionExampleScenario.node[548].veinsmobility 	startTime 	1792.75
scalar IntersectionExampleScenario.node[548].veinsmobility 	totalTime 	7.25
scalar IntersectionExampleScenario.node[548].veinsmobility 	stopTime 	1800
scalar IntersectionExampleScenario.node[548].veinsmobility 	minSpeed 	5.6500000953674
scalar IntersectionExampleScenario.node[548].veinsmobility 	maxSpeed 	15.64999961853
scalar IntersectionExampleScenario.node[548].veinsmobility 	totalDistance 	89.961730957031
scalar IntersectionExampleScenario.node[548].veinsmobility 	totalCO2Emission 	38.699536784671
scalar IntersectionExampleScenario.node[549].appl 	VehicleRemoved 	0
scalar IntersectionExampleScenario.node[549].appl 	ArrivedAtDest 	0
scalar IntersectionExampleScenario.node[549].appl 	IntersectionEnterTime 	1797
scalar IntersectionExampleScenario.node[549].appl 	IntersectionExitTime 	-1
scalar IntersectionExampleScenario.node[549].appl 	NumberOfCollisions 	0
scalar IntersectionExampleScenario.node[549].nic.phy80211p 	busyTime 	0
scalar IntersectionExampleScenario.node[549].nic.mac1609_4 	ReceivedUnicastPackets 	0
scalar IntersectionExampleScenario.node[549].nic.mac1609_4 	ReceivedBroadcasts 	0
scalar IntersectionExampleScenario.node[549].nic.mac1609_4 	SentPackets 	0
scalar IntersectionExampleScenario.node[549].nic.mac1609_4 	SNIRLostPackets 	0
scalar IntersectionExampleScenario.node[549].nic.mac1609_4 	RXTXLostPackets 	0
scalar IntersectionExampleScenario.node[549].nic.mac1609_4 	TotalLostPackets 	0
scalar IntersectionExampleScenario.node[549].nic.mac1609_4 	DroppedPacketsInMac 	0
scalar IntersectionExampleScenario.node[549].nic.mac1609_4 	TooLittleTime 	0
scalar IntersectionExampleScenario.node[549].nic.mac1609_4 	TimesIntoBackoff 	0
scalar IntersectionExampleScenario.node[549].nic.mac1609_4 	SlotsBackoff 	0
scalar IntersectionExampleScenario.node[549].nic.mac1609_4 	NumInternalContention 	0
scalar IntersectionExampleScenario.node[549].nic.mac1609_4 	totalBusyTime 	0
scalar IntersectionExampleScenario.node[549].veinsmobility 	startTime 	1797
scalar IntersectionExampleScenario.node[549].veinsmobility 	totalTime 	3
scalar IntersectionExampleScenario.node[549].veinsmobility 	stopTime 	1800
scalar IntersectionExampleScenario.node[549].veinsmobility 	minSpeed 	5.6500000953674
scalar IntersectionExampleScenario.node[549].veinsmobility 	maxSpeed 	12.52499961853
scalar IntersectionExampleScenario.node[549].veinsmobility 	totalDistance 	26.324951171875
scalar IntersectionExampleScenario.node[549].veinsmobility 	totalCO2Emission 	20.113115050741
scalar IntersectionExampleScenario.node[550].appl 	VehicleRemoved 	0
scalar IntersectionExampleScenario.node[550].appl 	ArrivedAtDest 	0
scalar IntersectionExampleScenario.node[550].appl 	IntersectionEnterTime 	1799
scalar IntersectionExampleScenario.node[550].appl 	IntersectionExitTime 	-1
scalar IntersectionExampleScenario.node[550].appl 	NumberOfCollisions 	0
scalar IntersectionExampleScenario.node[550].nic.phy80211p 	busyTime 	0
scalar IntersectionExampleScenario.node[550].nic.mac1609_4 	ReceivedUnicastPackets 	0
scalar IntersectionExampleScenario.node[550].nic.mac1609_4 	ReceivedBroadcasts 	0
scalar IntersectionExampleScenario.node[550].nic.mac1609_4 	SentPackets 	0
scalar IntersectionExampleScenario.node[550].nic.mac1609_4 	SNIRLostPackets 	0
scalar IntersectionExampleScenario.node[550].nic.mac1609_4 	RXTXLostPackets 	0
scalar IntersectionExampleScenario.node[550].nic.mac1609_4 	TotalLostPackets 	0
scalar IntersectionExampleScenario.node[550].nic.mac1609_4 	DroppedPacketsInMac 	0
scalar IntersectionExampleScenario.node[550].nic.mac1609_4 	TooLittleTime 	0
scalar IntersectionExampleScenario.node[550].nic.mac1609_4 	TimesIntoBackoff 	0
scalar IntersectionExampleScenario.node[550].nic.mac1609_4 	SlotsBackoff 	0
scalar IntersectionExampleScenario.node[550].nic.mac1609_4 	NumInternalContention 	0
scalar IntersectionExampleScenario.node[550].nic.mac1609_4 	totalBusyTime 	0
scalar IntersectionExampleScenario.node[550].veinsmobility 	startTime 	1799
scalar IntersectionExampleScenario.node[550].veinsmobility 	totalTime 	1
scalar IntersectionExampleScenario.node[550].veinsmobility 	stopTime 	1800
scalar IntersectionExampleScenario.node[550].veinsmobility 	minSpeed 	5.6500000953674
scalar IntersectionExampleScenario.node[550].veinsmobility 	maxSpeed 	7.5250000953674
scalar IntersectionExampleScenario.node[550].veinsmobility 	totalDistance 	6.2749938964844
scalar IntersectionExampleScenario.node[550].veinsmobility 	totalCO2Emission 	4.2232135025359
