file 16999126 1591404684                                        
version 2
run nodebug-45-20200605-20:49:16-14344
attr configname nodebug
attr datetime 20200605-20:49:16
attr experiment nodebug
attr inifile omnetpp.ini
attr iterationvars ""
attr iterationvars2 $repetition=45
attr measurement ""
attr network "\"org.car2x.veins.modules.application.ExtTraCIScenarioManagerLaunchd.IntersectionExampleScenario\""
attr processid 14344
attr repetition 45
attr replication #45
attr resultdir results
attr runnumber 45
attr seedset 45
param **.coreDebug false
param **.debug false
param *.**.nic.mac1609_4.bitrate 18Mbps
param *.**.nic.mac1609_4.txPower 20mW
param *.**.nic.mac1609_4.useServiceChannel false
param *.**.nic.phy80211p.analogueModels "xmldoc(\"config.xml\")"
param *.**.nic.phy80211p.decider "xmldoc(\"config.xml\")"
param *.**.nic.phy80211p.sensitivity -89dBm
param *.**.nic.phy80211p.thermalNoise -110dBm
param *.**.nic.phy80211p.usePropagationDelay true
param *.**.nic.phy80211p.useThermalNoise true
param *.annotations.draw false
param *.connectionManager.alpha 2.0
param *.connectionManager.carrierFrequency "5.890e9 Hz"
param *.connectionManager.pMax 20mW
param *.connectionManager.sat -89dBm
param *.connectionManager.sendDirect true
param *.manager.autoShutdown true
param *.manager.host "\"localhost\""
param *.manager.launchConfig "xmldoc(\"paramics.launchd.xml\")"
param *.manager.margin 25
param *.manager.moduleDisplayString "\"\""
param *.manager.moduleName "\"node\""
param *.manager.moduleType "\"org.car2x.veins.nodes.Car\""
param *.manager.port 9999
param *.manager.updateInterval 250ms
param *.node[*0].veinsmobility.accidentCount 0
param *.node[*0].veinsmobility.accidentDuration 30s
param *.node[*0].veinsmobility.accidentStart 75s
param *.node[*].appl.LiderSelectZoneRadio 55.0
param *.node[*].appl.ShareDataZoneRadio 110.0
param *.node[*].appl.TiempoSemaforo 30.0
param *.node[*].appl.beaconInterval 1s
param *.node[*].appl.beaconPriority 3
param *.node[*].appl.dataOnSch false
param *.node[*].appl.dataPriority 2
param *.node[*].appl.debug false
param *.node[*].appl.headerLength "256 bit"
param *.node[*].appl.maxOffset 0.005s
param *.node[*].appl.sendBeacons false
param *.node[*].appl.sendData true
param *.node[*].applType "\"Dummy\""
param *.node[*].mobilityType "\"TraCIMobility\""
param *.node[*].mobilityType.debug true
param *.node[*].veinsmobility.x 0
param *.node[*].veinsmobility.y 0
param *.node[*].veinsmobility.z 1.895
param *.node[*].veinsmobilityType "\"org.car2x.veins.modules.mobility.traci.TraCIMobility\""
param *.node[*].veinsmobilityType.debug true
param *.playgroundSizeX 8500m
param *.playgroundSizeY 8500m
param *.playgroundSizeZ 50m
param *.world.use2D false
param *.world.useTorus false

vector 61690  IntersectionExampleScenario.manager  vehiclesinsim  ETV
attr type  int
vector 61691  IntersectionExampleScenario.manager  realtime  ETV
attr type  int
attr unit  s
vector 61694  IntersectionExampleScenario.node[0].veinsmobility  posx  ETV
vector 61695  IntersectionExampleScenario.node[0].veinsmobility  posy  ETV
vector 61696  IntersectionExampleScenario.node[0].veinsmobility  speed  ETV
vector 61697  IntersectionExampleScenario.node[0].veinsmobility  acceleration  ETV
vector 61698  IntersectionExampleScenario.node[0].veinsmobility  co2emission  ETV
vector 61701  IntersectionExampleScenario.node[1].veinsmobility  posx  ETV
vector 61702  IntersectionExampleScenario.node[1].veinsmobility  posy  ETV
vector 61703  IntersectionExampleScenario.node[1].veinsmobility  speed  ETV
vector 61704  IntersectionExampleScenario.node[1].veinsmobility  acceleration  ETV
vector 61705  IntersectionExampleScenario.node[1].veinsmobility  co2emission  ETV
vector 61708  IntersectionExampleScenario.node[2].veinsmobility  posx  ETV
vector 61709  IntersectionExampleScenario.node[2].veinsmobility  posy  ETV
vector 61710  IntersectionExampleScenario.node[2].veinsmobility  speed  ETV
vector 61711  IntersectionExampleScenario.node[2].veinsmobility  acceleration  ETV
vector 61712  IntersectionExampleScenario.node[2].veinsmobility  co2emission  ETV
vector 61715  IntersectionExampleScenario.node[3].veinsmobility  posx  ETV
vector 61716  IntersectionExampleScenario.node[3].veinsmobility  posy  ETV
vector 61717  IntersectionExampleScenario.node[3].veinsmobility  speed  ETV
vector 61718  IntersectionExampleScenario.node[3].veinsmobility  acceleration  ETV
vector 61719  IntersectionExampleScenario.node[3].veinsmobility  co2emission  ETV
vector 61722  IntersectionExampleScenario.node[4].veinsmobility  posx  ETV
vector 61723  IntersectionExampleScenario.node[4].veinsmobility  posy  ETV
vector 61724  IntersectionExampleScenario.node[4].veinsmobility  speed  ETV
vector 61725  IntersectionExampleScenario.node[4].veinsmobility  acceleration  ETV
vector 61726  IntersectionExampleScenario.node[4].veinsmobility  co2emission  ETV
vector 61729  IntersectionExampleScenario.node[5].veinsmobility  posx  ETV
vector 61730  IntersectionExampleScenario.node[5].veinsmobility  posy  ETV
vector 61736  IntersectionExampleScenario.node[6].veinsmobility  posx  ETV
vector 61737  IntersectionExampleScenario.node[6].veinsmobility  posy  ETV
vector 61731  IntersectionExampleScenario.node[5].veinsmobility  speed  ETV
vector 61732  IntersectionExampleScenario.node[5].veinsmobility  acceleration  ETV
vector 61733  IntersectionExampleScenario.node[5].veinsmobility  co2emission  ETV
vector 61738  IntersectionExampleScenario.node[6].veinsmobility  speed  ETV
vector 61739  IntersectionExampleScenario.node[6].veinsmobility  acceleration  ETV
vector 61740  IntersectionExampleScenario.node[6].veinsmobility  co2emission  ETV
vector 61743  IntersectionExampleScenario.node[7].veinsmobility  posx  ETV
vector 61744  IntersectionExampleScenario.node[7].veinsmobility  posy  ETV
vector 61745  IntersectionExampleScenario.node[7].veinsmobility  speed  ETV
vector 61746  IntersectionExampleScenario.node[7].veinsmobility  acceleration  ETV
vector 61747  IntersectionExampleScenario.node[7].veinsmobility  co2emission  ETV
vector 61750  IntersectionExampleScenario.node[8].veinsmobility  posx  ETV
vector 61751  IntersectionExampleScenario.node[8].veinsmobility  posy  ETV
vector 61752  IntersectionExampleScenario.node[8].veinsmobility  speed  ETV
vector 61753  IntersectionExampleScenario.node[8].veinsmobility  acceleration  ETV
vector 61754  IntersectionExampleScenario.node[8].veinsmobility  co2emission  ETV
vector 61757  IntersectionExampleScenario.node[9].veinsmobility  posx  ETV
vector 61758  IntersectionExampleScenario.node[9].veinsmobility  posy  ETV
vector 61759  IntersectionExampleScenario.node[9].veinsmobility  speed  ETV
vector 61760  IntersectionExampleScenario.node[9].veinsmobility  acceleration  ETV
vector 61761  IntersectionExampleScenario.node[9].veinsmobility  co2emission  ETV
vector 61764  IntersectionExampleScenario.node[10].veinsmobility  posx  ETV
vector 61765  IntersectionExampleScenario.node[10].veinsmobility  posy  ETV
vector 61766  IntersectionExampleScenario.node[10].veinsmobility  speed  ETV
vector 61767  IntersectionExampleScenario.node[10].veinsmobility  acceleration  ETV
vector 61768  IntersectionExampleScenario.node[10].veinsmobility  co2emission  ETV
61712	7297 4927 72 2146 4.75 43.5 156 0.973 11.54047740176 464.63231158543 2336.4085283449
61711	12224 4360 72 2146 4.75 43.5 156 -2.906135559082 2.5 37.32285118103 179.22973075835
61710	16584 4841 65 2146 4.5 43.5 157 5.6500000953674 15.5 2216.590294838 31875.992361842
61709	21425 5108 58 2146 4.25 43.5 158 483.14999389648 483.14999389648 76337.699035645 36882558.823143
61708	26533 5035 58 2146 4.25 43.5 158 184.17810058594 733.22798156738 70908.541702271 36014724.094117
vector 61771  IntersectionExampleScenario.node[11].veinsmobility  posx  ETV
vector 61772  IntersectionExampleScenario.node[11].veinsmobility  posy  ETV
vector 61773  IntersectionExampleScenario.node[11].veinsmobility  speed  ETV
vector 61774  IntersectionExampleScenario.node[11].veinsmobility  acceleration  ETV
vector 61775  IntersectionExampleScenario.node[11].veinsmobility  co2emission  ETV
vector 61778  IntersectionExampleScenario.node[12].veinsmobility  posx  ETV
vector 61779  IntersectionExampleScenario.node[12].veinsmobility  posy  ETV
61719	32123 5303 111 2313 6 48 169 0.973 10.916047529558 478.51104039984 2329.707579779
61718	37426 4880 111 2313 6 48 169 -3.5044422149658 2.5 33.418523788452 250.11937413807
61717	42306 5167 102 2313 5.75 48 170 5.6500000953674 14.625 2178.9131093025 28894.734083799
61716	47473 5541 93 2313 5.5 48 171 486.85000610352 732.26406860352 92050.970535278 50537517.394084
61715	53014 5542 93 2313 5.5 48 171 486.85000610352 785.82187652588 97835.924514771 57793038.263375
vector 61780  IntersectionExampleScenario.node[12].veinsmobility  speed  ETV
vector 61781  IntersectionExampleScenario.node[12].veinsmobility  acceleration  ETV
vector 61782  IntersectionExampleScenario.node[12].veinsmobility  co2emission  ETV
61698	58803 5844 11 2434 1.5 50.75 198 0.973 11.90022389248 581.71972426492 3104.9005276761
61697	64647 5303 11 2434 1.5 50.75 198 -6.9388580322266 4 39.869146347046 486.92859174969
61696	69950 5671 8 2434 1.25 50.75 199 0 16 2204.3578848839 31907.458465355
61695	75621 6440 5 2434 1 50.75 200 238.82672119141 785.82187652588 103485.84972382 57594978.073474
61694	82061 6452 5 2434 1 50.75 200 483.14999389648 483.14999389648 96629.998779297 46686783.320434
vector 61785  IntersectionExampleScenario.node[13].veinsmobility  posx  ETV
vector 61786  IntersectionExampleScenario.node[13].veinsmobility  posy  ETV
vector 61787  IntersectionExampleScenario.node[13].veinsmobility  speed  ETV
vector 61788  IntersectionExampleScenario.node[13].veinsmobility  acceleration  ETV
vector 61789  IntersectionExampleScenario.node[13].veinsmobility  co2emission  ETV
61705	88914 6135 33 2525 3 52.75 200 0.973 11.648172402475 590.8160105056 3089.7343240911
61704	95049 5992 33 2525 3 52.75 200 -4.5 2.5 40.038900375366 450.86755801605
61703	101041 6341 28 2525 2.75 52.75 201 0 16.058835983276 2292.4673285317 32913.776340997
61702	107382 6506 23 2525 2.5 52.75 202 238.07110595703 806.11563110352 106453.59749603 60610721.388726
61701	113888 6539 23 2525 2.5 52.75 202 483.14999389648 483.14999389648 97596.29876709 47153651.153639
61726	120427 5335 268 2613 10.25 54.75 179 0.973 12.26218747632 565.7634590308 3361.3109812638
61725	125762 5390 268 2613 10.25 54.75 179 -3.9464111328125 2.5 41.227170944214 360.99027812621
61724	131152 5538 257 2613 10 54.75 180 3.6322054862976 16.5 2177.316737175 29665.735150809
61723	136690 5902 246 2613 9.75 54.75 181 486.84591674805 785.82187652588 102855.09270477 60187072.167785
61722	142592 5916 246 2613 9.75 54.75 181 238.63806152344 483.14999389648 79726.499145508 36041506.173572
vector 61792  IntersectionExampleScenario.node[14].veinsmobility  posx  ETV
vector 61793  IntersectionExampleScenario.node[14].veinsmobility  posy  ETV
vector 61794  IntersectionExampleScenario.node[14].veinsmobility  speed  ETV
61733	148740 4897 549 2692 16.5 56.5 161 0.973 12.099024792222 551.36743003919 3531.006673367
61732	153637 4833 549 2692 16.5 56.5 161 -3.6925201416016 2.5 40.038900375366 329.64017140953
61731	158470 5075 534 2692 16.25 56.5 162 5.6500000953674 16.27499961853 2211.3691959381 31256.874104768
61730	163545 5333 521 2692 16 56.5 163 238.16680908203 785.82187652588 85710.900978088 49126135.563768
61729	168878 5347 521 2692 16 56.5 163 483.14999389648 483.14999389648 78753.449005127 38049728.406154
vector 61795  IntersectionExampleScenario.node[14].veinsmobility  acceleration  ETV
vector 61796  IntersectionExampleScenario.node[14].veinsmobility  co2emission  ETV
61740	174394 5086 564 2705 16.75 56.75 161 0.973 11.648172402475 501.01325332948 2639.6047830713
61739	179480 5111 564 2705 16.75 56.75 161 -3.3094635009766 2.5 37.832105636597 252.60994324382
61738	184591 5261 549 2705 16.5 56.75 162 5.6500000953674 15.64999961853 2204.3914637566 31187.771230748
61737	189852 5330 534 2705 16.25 56.75 163 184.17810058594 486.85610961914 65167.083374023 27857023.500488
61736	195182 5344 534 2705 16.25 56.75 163 237.46624755859 486.85000610352 70868.362609863 31772550.193754
61754	200526 5029 1025 2995 24 62.75 156 0.973 11.54047740176 464.21906764276 2334.0371168052
61753	205555 4483 1025 2995 24 62.75 156 -3.3398857116699 2.5 37.15309715271 186.6448788828
61752	210038 4946 1006 2995 23.75 62.75 157 5.6500000953674 15.5 2213.6558437347 31783.54138806
61751	214984 5178 987 2995 23.5 62.75 158 184.17810058594 732.48867797852 70860.174697876 35963111.468696
61750	220162 5214 987 2995 23.5 62.75 158 486.85000610352 486.85000610352 76922.300964355 37449622.693993
vector 61799  IntersectionExampleScenario.node[15].veinsmobility  posx  ETV
vector 61800  IntersectionExampleScenario.node[15].veinsmobility  posy  ETV
vector 61801  IntersectionExampleScenario.node[15].veinsmobility  speed  ETV
vector 61802  IntersectionExampleScenario.node[15].veinsmobility  acceleration  ETV
vector 61803  IntersectionExampleScenario.node[15].veinsmobility  co2emission  ETV
61747	225777 5633 868 3183 21.75 67.5 184 0.973 11.450879080643 540.47052098856 2799.270464832
61746	231410 5286 868 3183 21.75 67.5 184 -8.2854442596436 4 37.492597579956 471.67927564092
61745	236696 5621 851 3183 21.5 67.5 185 0 15.375 2215.1979937553 30979.330599651
61744	242317 6129 834 3183 21.25 67.5 186 486.85000610352 486.85000610352 90554.101135254 44086264.690397
61743	248446 6121 834 3183 21.25 67.5 186 235.61877441406 785.82187652588 96271.695350647 54050402.124823
vector 61806  IntersectionExampleScenario.node[16].veinsmobility  posx  ETV
vector 61807  IntersectionExampleScenario.node[16].veinsmobility  posy  ETV
vector 61808  IntersectionExampleScenario.node[16].veinsmobility  speed  ETV
vector 61809  IntersectionExampleScenario.node[16].veinsmobility  acceleration  ETV
vector 61810  IntersectionExampleScenario.node[16].veinsmobility  co2emission  ETV
vector 61813  IntersectionExampleScenario.node[17].veinsmobility  posx  ETV
vector 61814  IntersectionExampleScenario.node[17].veinsmobility  posy  ETV
vector 61815  IntersectionExampleScenario.node[17].veinsmobility  speed  ETV
vector 61816  IntersectionExampleScenario.node[17].veinsmobility  acceleration  ETV
vector 61817  IntersectionExampleScenario.node[17].veinsmobility  co2emission  ETV
61761	255369 4911 1899 3574 37.5 76 155 0.93438186594183 12.26218747632 526.10979958562 3149.9242643325
61760	260280 4678 1899 3574 37.5 76 155 -4.1241569519043 2.5 41.057416915894 316.53072866222
61759	264958 4802 1885 3574 37.25 76 156 5.6500000953674 16.5 2190.7352743149 32353.195198299
61758	269760 5172 1870 3574 37 76 157 486.85000610352 734.97888183594 84403.429199219 46283572.639503
61757	274932 5170 1870 3574 37 76 157 486.85000610352 785.82187652588 89893.231285095 53179233.4719
vector 61820  IntersectionExampleScenario.node[18].veinsmobility  posx  ETV
vector 61821  IntersectionExampleScenario.node[18].veinsmobility  posy  ETV
vector 61822  IntersectionExampleScenario.node[18].veinsmobility  speed  ETV
vector 61823  IntersectionExampleScenario.node[18].veinsmobility  acceleration  ETV
vector 61824  IntersectionExampleScenario.node[18].veinsmobility  co2emission  ETV
61768	280503 4971 2083 3797 41.75 80 154 0.97223939240464 11.648172402475 474.01789740177 2482.8106087815
61767	285474 4784 2083 3797 41.75 80 154 -3.677791595459 2.5 38.680875778198 197.52056869649
61766	290258 4885 2074 3797 41.5 80 155 5.6500000953674 15.64999961853 2226.55027771 32638.873592103
61765	295143 5148 2065 3797 41.25 80 156 486.85000610352 486.85000610352 75948.600952148 36975576.837107
61764	300291 5138 2065 3797 41.25 80 156 238.73413085938 790.18281555176 81838.83555603 47109852.700251
vector 61827  IntersectionExampleScenario.node[19].veinsmobility  posx  ETV
vector 61828  IntersectionExampleScenario.node[19].veinsmobility  posy  ETV
vector 61829  IntersectionExampleScenario.node[19].veinsmobility  speed  ETV
vector 61830  IntersectionExampleScenario.node[19].veinsmobility  acceleration  ETV
vector 61831  IntersectionExampleScenario.node[19].veinsmobility  co2emission  ETV
vector 61834  IntersectionExampleScenario.node[20].veinsmobility  posx  ETV
vector 61835  IntersectionExampleScenario.node[20].veinsmobility  posy  ETV
vector 61836  IntersectionExampleScenario.node[20].veinsmobility  speed  ETV
vector 61837  IntersectionExampleScenario.node[20].veinsmobility  acceleration  ETV
vector 61838  IntersectionExampleScenario.node[20].veinsmobility  co2emission  ETV
vector 61841  IntersectionExampleScenario.node[21].veinsmobility  posx  ETV
vector 61842  IntersectionExampleScenario.node[21].veinsmobility  posy  ETV
vector 61843  IntersectionExampleScenario.node[21].veinsmobility  speed  ETV
vector 61844  IntersectionExampleScenario.node[21].veinsmobility  acceleration  ETV
vector 61845  IntersectionExampleScenario.node[21].veinsmobility  co2emission  ETV
61782	306632 5041 2335 4239 48.5 87.5 157 0.973 11.648172402475 489.93848290835 2630.9394071346
61781	311673 4608 2335 4239 48.5 87.5 157 -3.2447242736816 2.5 38.341367721558 231.96885522496
61780	316281 4931 2324 4239 48.25 87.5 158 5.6500000953674 15.64999961853 2204.4889316559 31683.15473348
61779	321212 5221 2313 4239 48 87.5 159 184.17810058594 486.85000610352 63288.768218994 26965347.223754
61778	326433 5232 2313 4239 48 87.5 159 237.70812988281 486.85000610352 69056.387145996 30939670.996897
vector 61848  IntersectionExampleScenario.node[22].veinsmobility  posx  ETV
vector 61849  IntersectionExampleScenario.node[22].veinsmobility  posy  ETV
vector 61850  IntersectionExampleScenario.node[22].veinsmobility  speed  ETV
vector 61851  IntersectionExampleScenario.node[22].veinsmobility  acceleration  ETV
vector 61852  IntersectionExampleScenario.node[22].veinsmobility  co2emission  ETV
vector 61855  IntersectionExampleScenario.node[23].veinsmobility  posx  ETV
vector 61856  IntersectionExampleScenario.node[23].veinsmobility  posy  ETV
vector 61857  IntersectionExampleScenario.node[23].veinsmobility  speed  ETV
vector 61858  IntersectionExampleScenario.node[23].veinsmobility  acceleration  ETV
vector 61859  IntersectionExampleScenario.node[23].veinsmobility  co2emission  ETV
vector 61862  IntersectionExampleScenario.node[24].veinsmobility  posx  ETV
vector 61863  IntersectionExampleScenario.node[24].veinsmobility  posy  ETV
vector 61864  IntersectionExampleScenario.node[24].veinsmobility  speed  ETV
vector 61865  IntersectionExampleScenario.node[24].veinsmobility  acceleration  ETV
vector 61866  IntersectionExampleScenario.node[24].veinsmobility  co2emission  ETV
61796	332868 5108 2705 4780 56.75 96.25 159 0.973 11.450879080643 484.85277543601 2508.3976827919
61795	337976 4453 2705 4780 56.75 96.25 159 -3.1659812927246 2.5 37.492597579956 221.06141420256
61794	342429 4994 2692 4780 56.5 96.25 160 5.6500000953674 15.375 2208.8621778488 31360.982922375
61793	347423 5287 2679 4780 56.25 96.25 161 184.17810058594 486.85000610352 64113.211181641 27322070.548609
61792	352710 5307 2679 4780 56.25 96.25 161 236.53900146484 486.85000610352 69843.347625732 31270410.38417
vector 61869  IntersectionExampleScenario.node[25].veinsmobility  posx  ETV
vector 61870  IntersectionExampleScenario.node[25].veinsmobility  posy  ETV
vector 61871  IntersectionExampleScenario.node[25].veinsmobility  speed  ETV
vector 61872  IntersectionExampleScenario.node[25].veinsmobility  acceleration  ETV
vector 61873  IntersectionExampleScenario.node[25].veinsmobility  co2emission  ETV
vector 61876  IntersectionExampleScenario.node[26].veinsmobility  posx  ETV
vector 61877  IntersectionExampleScenario.node[26].veinsmobility  posy  ETV
61775	358572 6345 2258 4945 46.5 98.75 210 0.973 11.200708441096 562.69456340137 2700.8609044512
61774	364917 5729 2258 4945 46.5 98.75 210 -7.5492105484009 4 35.964826583862 468.45118037559
61773	370646 6171 2247 4945 46.25 98.75 211 0 15.02499961853 2206.3847739697 30287.269027981
61772	376817 6996 2236 4945 46 98.75 212 483.14999389648 483.14999389648 102427.79870605 49487990.31966
61771	383813 6961 2236 4945 46 98.75 212 184.17810058594 732.29058837891 96328.979293823 48028617.172712
vector 61883  IntersectionExampleScenario.node[27].veinsmobility  posx  ETV
vector 61884  IntersectionExampleScenario.node[27].veinsmobility  posy  ETV
vector 61878  IntersectionExampleScenario.node[26].veinsmobility  speed  ETV
vector 61879  IntersectionExampleScenario.node[26].veinsmobility  acceleration  ETV
vector 61880  IntersectionExampleScenario.node[26].veinsmobility  co2emission  ETV
vector 61885  IntersectionExampleScenario.node[27].veinsmobility  speed  ETV
vector 61886  IntersectionExampleScenario.node[27].veinsmobility  acceleration  ETV
vector 61887  IntersectionExampleScenario.node[27].veinsmobility  co2emission  ETV
61789	391422 5994 2470 5048 51.5 100 195 0.973 11.912319143377 597.61827202226 3112.8438318801
61788	397416 6240 2470 5048 51.5 100 195 -4.5 2.5 41.449499130249 434.84692460298
61787	403656 6320 2458 5048 51.25 100 196 0 16.016757965088 2218.1098918859 31658.648498341
61786	409976 6500 2445 5048 51 100 197 483.14999389648 483.14999389648 95180.548797607 45986481.570628
61785	416476 6467 2445 5048 51 100 197 184.17810058594 733.97888183594 89144.413742065 44462630.979037
vector 61890  IntersectionExampleScenario.node[28].veinsmobility  posx  ETV
vector 61891  IntersectionExampleScenario.node[28].veinsmobility  posy  ETV
vector 61892  IntersectionExampleScenario.node[28].veinsmobility  speed  ETV
vector 61893  IntersectionExampleScenario.node[28].veinsmobility  acceleration  ETV
vector 61894  IntersectionExampleScenario.node[28].veinsmobility  co2emission  ETV
vector 61897  IntersectionExampleScenario.node[29].veinsmobility  posx  ETV
vector 61898  IntersectionExampleScenario.node[29].veinsmobility  posy  ETV
vector 61904  IntersectionExampleScenario.node[30].veinsmobility  posx  ETV
vector 61905  IntersectionExampleScenario.node[30].veinsmobility  posy  ETV
vector 61899  IntersectionExampleScenario.node[29].veinsmobility  speed  ETV
vector 61900  IntersectionExampleScenario.node[29].veinsmobility  acceleration  ETV
vector 61901  IntersectionExampleScenario.node[29].veinsmobility  co2emission  ETV
vector 61906  IntersectionExampleScenario.node[30].veinsmobility  speed  ETV
vector 61907  IntersectionExampleScenario.node[30].veinsmobility  acceleration  ETV
vector 61908  IntersectionExampleScenario.node[30].veinsmobility  co2emission  ETV
61803	424146 5218 3183 5759 67.5 107.75 162 0.973 11.36141391502 496.04206152594 2597.598836304
61802	429364 4772 3183 5759 67.5 107.75 162 -4.1636962890625 2.5 36.813589096069 274.27251214115
61801	434136 5099 3172 5759 67.25 107.75 163 5.6500000953674 15.25 2179.8608140945 30364.53085435
61800	439235 5442 3161 5759 67 107.75 164 237.57897949219 483.14999389648 70903.1769104 31591672.263054
61799	444677 5414 3161 5759 67 107.75 164 184.17810058594 483.15948486328 65184.381286621 27671739.513254
vector 61911  IntersectionExampleScenario.node[31].veinsmobility  posx  ETV
vector 61912  IntersectionExampleScenario.node[31].veinsmobility  posy  ETV
vector 61913  IntersectionExampleScenario.node[31].veinsmobility  speed  ETV
vector 61914  IntersectionExampleScenario.node[31].veinsmobility  acceleration  ETV
vector 61915  IntersectionExampleScenario.node[31].veinsmobility  co2emission  ETV
vector 61918  IntersectionExampleScenario.node[32].veinsmobility  posx  ETV
vector 61919  IntersectionExampleScenario.node[32].veinsmobility  posy  ETV
vector 61920  IntersectionExampleScenario.node[32].veinsmobility  speed  ETV
vector 61921  IntersectionExampleScenario.node[32].veinsmobility  acceleration  ETV
vector 61922  IntersectionExampleScenario.node[32].veinsmobility  co2emission  ETV
61817	450893 4960 3444 6178 73.5 112 155 0.93438186594183 12.26218747632 526.10979958562 3149.9242643325
61816	455853 4727 3444 6178 73.5 112 155 -4.1241569519043 2.5 41.057416915894 316.53072866222
61815	460580 4851 3431 6178 73.25 112 156 5.6500000953674 16.5 2190.7352743149 32353.195198299
61814	465431 5221 3418 6178 73 112 157 486.85000610352 734.97888183594 84403.429199219 46283572.639503
61813	470652 5219 3418 6178 73 112 157 486.85000610352 785.82187652588 89893.231285095 53179233.4719
61810	475871 5103 3407 6232 72.75 112.5 160 0.973 12.099024792222 535.83565101073 3104.6262482691
61809	480974 4877 3407 6232 72.75 112.5 160 -3.4660911560059 2.5 40.038900375366 350.32619493887
61808	485851 5137 3396 6232 72.5 112.5 161 4.7352809906006 16.27499961853 2209.9089846611 32029.767014315
61807	490988 5381 3385 6232 72.25 112.5 162 482.99325561523 785.82187652588 92265.391151428 54324676.033168
61806	496369 5395 3385 6232 72.25 112.5 162 483.14999389648 734.35153198242 86541.515548706 47191677.496759
vector 61925  IntersectionExampleScenario.node[33].veinsmobility  posx  ETV
vector 61926  IntersectionExampleScenario.node[33].veinsmobility  posy  ETV
vector 61932  IntersectionExampleScenario.node[34].veinsmobility  posx  ETV
vector 61933  IntersectionExampleScenario.node[34].veinsmobility  posy  ETV
61831	502072 5042 3840 6866 80.75 119.25 155 0.973 11.90022389248 498.68357133478 2781.8493424472
61830	507114 4971 3840 6866 80.75 119.25 155 -3.6352081298828 2.5 39.529638290405 249.63113543505
61829	512085 4921 3825 6866 80.5 119.25 156 5.6500000953674 16 2208.4168834686 32277.473532314
61828	517006 5251 3810 6866 80.25 119.25 157 483.14999389648 785.82187652588 89818.201698303 53144387.111628
61827	522257 5252 3810 6866 80.25 119.25 157 483.14999389648 733.1354675293 84107.222747803 45997495.714923
vector 61927  IntersectionExampleScenario.node[33].veinsmobility  speed  ETV
vector 61934  IntersectionExampleScenario.node[34].veinsmobility  speed  ETV
vector 61928  IntersectionExampleScenario.node[33].veinsmobility  acceleration  ETV
vector 61929  IntersectionExampleScenario.node[33].veinsmobility  co2emission  ETV
vector 61935  IntersectionExampleScenario.node[34].veinsmobility  acceleration  ETV
vector 61936  IntersectionExampleScenario.node[34].veinsmobility  co2emission  ETV
vector 61939  IntersectionExampleScenario.node[35].veinsmobility  posx  ETV
vector 61940  IntersectionExampleScenario.node[35].veinsmobility  posy  ETV
vector 61941  IntersectionExampleScenario.node[35].veinsmobility  speed  ETV
vector 61942  IntersectionExampleScenario.node[35].veinsmobility  acceleration  ETV
vector 61943  IntersectionExampleScenario.node[35].veinsmobility  co2emission  ETV
vector 61946  IntersectionExampleScenario.node[36].veinsmobility  posx  ETV
vector 61947  IntersectionExampleScenario.node[36].veinsmobility  posy  ETV
vector 61953  IntersectionExampleScenario.node[37].veinsmobility  posx  ETV
vector 61954  IntersectionExampleScenario.node[37].veinsmobility  posy  ETV
vector 61948  IntersectionExampleScenario.node[36].veinsmobility  speed  ETV
vector 61955  IntersectionExampleScenario.node[37].veinsmobility  speed  ETV
vector 61949  IntersectionExampleScenario.node[36].veinsmobility  acceleration  ETV
vector 61950  IntersectionExampleScenario.node[36].veinsmobility  co2emission  ETV
vector 61956  IntersectionExampleScenario.node[37].veinsmobility  acceleration  ETV
vector 61957  IntersectionExampleScenario.node[37].veinsmobility  co2emission  ETV
vector 61960  IntersectionExampleScenario.node[38].veinsmobility  posx  ETV
vector 61961  IntersectionExampleScenario.node[38].veinsmobility  posy  ETV
61845	529360 4948 4089 7228 85 122.5 151 0.973 11.990504229548 479.97191342524 2613.7218177773
61844	534308 4434 4089 7228 85 122.5 151 -3.2447547912598 2.5 39.869146347046 201.41922718971
61843	538742 4854 4074 7228 84.75 122.5 152 5.6500000953674 16.125 2212.2037334442 32921.068151754
61842	543596 5087 4059 7228 84.5 122.5 153 184.17810058594 731.93894958496 68437.339279175 34655173.1069
61841	548683 5140 4059 7228 84.5 122.5 153 486.85000610352 486.85000610352 74488.050933838 36264508.051778
vector 61962  IntersectionExampleScenario.node[38].veinsmobility  speed  ETV
vector 61963  IntersectionExampleScenario.node[38].veinsmobility  acceleration  ETV
vector 61964  IntersectionExampleScenario.node[38].veinsmobility  co2emission  ETV
vector 61967  IntersectionExampleScenario.node[39].veinsmobility  posx  ETV
vector 61968  IntersectionExampleScenario.node[39].veinsmobility  posy  ETV
vector 61969  IntersectionExampleScenario.node[39].veinsmobility  speed  ETV
vector 61970  IntersectionExampleScenario.node[39].veinsmobility  acceleration  ETV
vector 61971  IntersectionExampleScenario.node[39].veinsmobility  co2emission  ETV
vector 61974  IntersectionExampleScenario.node[40].veinsmobility  posx  ETV
vector 61975  IntersectionExampleScenario.node[40].veinsmobility  posy  ETV
vector 61976  IntersectionExampleScenario.node[40].veinsmobility  speed  ETV
vector 61977  IntersectionExampleScenario.node[40].veinsmobility  acceleration  ETV
vector 61978  IntersectionExampleScenario.node[40].veinsmobility  co2emission  ETV
vector 61981  IntersectionExampleScenario.node[41].veinsmobility  posx  ETV
vector 61982  IntersectionExampleScenario.node[41].veinsmobility  posy  ETV
vector 61983  IntersectionExampleScenario.node[41].veinsmobility  speed  ETV
vector 61984  IntersectionExampleScenario.node[41].veinsmobility  acceleration  ETV
vector 61985  IntersectionExampleScenario.node[41].veinsmobility  co2emission  ETV
61824	555273 6316 3708 8130 78.5 129.5 205 0.973 11.450879080643 568.79135723986 2843.1494468361
61823	561589 5949 3708 8130 78.5 129.5 205 -7.0789294242859 4 37.32285118103 471.28198105003
61822	567538 6154 3693 8130 78.25 129.5 206 0 15.375 2213.4718044996 30982.785034959
61821	573692 6949 3678 8130 78 129.5 207 486.85000610352 486.85000610352 100777.95126343 49063746.187699
61820	580641 6941 3678 8130 78 129.5 207 236.18798828125 785.82187652588 106750.43215179 59275206.850128
61838	587582 6052 4000 8422 83.5 132 195 0.973 10.916047529558 519.43183481029 2467.2926805683
61837	593634 6060 4000 8422 83.5 132 195 -2.6616058349609 2.5 34.437047958374 289.00009911869
61836	599694 6283 3985 8422 83.25 132 196 1.5291773080826 14.625 2192.6002955437 28011.105818232
61835	605977 6625 3970 8422 83 132 197 486.85000610352 735.49136352539 104789.15382385 56809384.292625
61834	612602 6614 3970 8422 83 132 197 486.85000610352 785.82187652588 111177.47665405 64624480.02194
61866	619216 5041 4763 8633 96 134 153 0.973 12.099024792222 510.88807599657 2770.9442805377
61865	624257 4895 4763 8633 96 134 153 -3.2819633483887 2.5 41.396932601929 243.09790761455
61864	629152 4942 4745 8633 95.75 134 154 5.6500000953674 16.27499961853 2216.2214775085 33012.78351695
61863	634094 5241 4726 8633 95.5 134 155 483.14999389648 735.20536804199 83094.199417114 45483260.824929
61862	639335 5219 4726 8633 95.5 134 155 184.17810058594 486.87591552734 61747.291717529 26341260.932668
vector 61988  IntersectionExampleScenario.node[42].veinsmobility  posx  ETV
vector 61989  IntersectionExampleScenario.node[42].veinsmobility  posy  ETV
vector 61990  IntersectionExampleScenario.node[42].veinsmobility  speed  ETV
vector 61995  IntersectionExampleScenario.node[43].veinsmobility  posx  ETV
vector 61996  IntersectionExampleScenario.node[43].veinsmobility  posy  ETV
vector 61991  IntersectionExampleScenario.node[42].veinsmobility  acceleration  ETV
vector 61992  IntersectionExampleScenario.node[42].veinsmobility  co2emission  ETV
vector 61997  IntersectionExampleScenario.node[43].veinsmobility  speed  ETV
vector 61998  IntersectionExampleScenario.node[43].veinsmobility  acceleration  ETV
vector 61999  IntersectionExampleScenario.node[43].veinsmobility  co2emission  ETV
61880	645356 5296 4985 9228 99.25 139.5 162 0.973 11.810082123732 513.54369261307 2876.9985343783
61879	650652 5156 4985 9228 99.25 139.5 162 -3.3713550567627 2.5 38.511121749878 282.38269349772
61878	655808 5193 4964 9228 99 139.5 163 5.6500000953674 15.875 2223.4268660545 31729.067423435
61877	661001 5547 4945 9228 98.75 139.5 164 238.31341552734 483.14999389648 71167.406036377 31798393.391381
61876	666548 5542 4945 9228 98.75 139.5 164 172.9296875 483.27044677734 64466.833618164 27251838.805397
vector 62002  IntersectionExampleScenario.node[44].veinsmobility  posx  ETV
vector 62003  IntersectionExampleScenario.node[44].veinsmobility  posy  ETV
vector 62004  IntersectionExampleScenario.node[44].veinsmobility  speed  ETV
vector 62005  IntersectionExampleScenario.node[44].veinsmobility  acceleration  ETV
vector 62006  IntersectionExampleScenario.node[44].veinsmobility  co2emission  ETV
61852	672491 6449 4465 9718 91.25 143.75 211 0.96333723109819 12.099024792222 597.21686548259 3198.7729973725
61851	678940 5931 4465 9718 91.25 143.75 211 -7.2186679840088 4 40.208654403687 531.02261902466
61850	684871 6159 4450 9718 91 143.75 212 0 16.27499961853 2171.4500997066 31460.239071537
61849	691030 7189 4434 9718 90.75 143.75 213 486.63604736328 785.82187652588 117903.54982758 67202498.028095
61848	698219 7135 4434 9718 90.75 143.75 213 238.56188964844 483.14999389648 95060.897583008 43410508.855919
61873	705354 5918 4877 9772 97.75 144.25 187 0.97223939240464 11.810082123732 560.05875159457 3016.9377313661
61872	711272 5576 4877 9772 97.75 144.25 187 -7.1630792617798 4 38.680875778198 476.87807198367
61871	716848 5763 4860 9772 97.5 144.25 188 0 15.875 2184.2048678398 30861.61710822
61870	722611 6389 4843 9772 97.25 144.25 189 184.17810058594 483.36395263672 77178.768249512 33382304.428081
61869	729000 6345 4843 9772 97.25 144.25 189 486.85000610352 734.74661254883 100254.70167542 54178735.69396
61859	735345 6406 4709 9848 95.25 145 200 0.973 12.099024792222 615.11366408535 3397.2149594715
61858	741751 6351 4709 9848 95.25 145 200 -4.5 2.5 41.58465385437 485.39327527187
61857	748102 6782 4692 9848 95 145 201 0 16.579978942871 2223.2138578575 32825.249632601
61856	754884 6833 4675 9848 94.75 145 202 483.13299560547 792.02188110352 112748.98560333 64911474.38602
61855	761717 6831 4675 9848 94.75 145 202 483.14999389648 731.35606384277 105369.51742554 55951231.589175
61894	768548 5735 5136 9895 101 145.5 179 0.973 11.54047740176 534.4630205228 2770.5125484085
61893	774283 5590 5136 9895 101 145.5 179 -4.248851776123 2.5000009536743 37.15309715271 349.99075400591
61892	779873 5955 5113 9895 100.75 145.5 180 1.90880382061 15.5 2258.3902453184 31086.68303201
61891	785828 6114 5090 9895 100.5 145.5 181 172.9296875 732.92459106445 80509.446166992 40264912.533414
61890	791942 6154 5090 9895 100.5 145.5 181 486.85000610352 486.85000610352 88119.851104736 42901150.048182
vector 62009  IntersectionExampleScenario.node[45].veinsmobility  posx  ETV
vector 62010  IntersectionExampleScenario.node[45].veinsmobility  posy  ETV
vector 62011  IntersectionExampleScenario.node[45].veinsmobility  speed  ETV
vector 62012  IntersectionExampleScenario.node[45].veinsmobility  acceleration  ETV
vector 62013  IntersectionExampleScenario.node[45].veinsmobility  co2emission  ETV
61887	798497 6135 5006 10129 99.5 148 195 0.97223939240464 11.648172402475 557.89826278702 2846.9141409585
61886	804632 6224 5006 10129 99.5 148 195 -2.3194427490234 2.5 38.680875778198 282.45755518093
61885	810856 6469 4985 10129 99.25 148 196 2.4187512397766 15.64999961853 2238.1453535557 29411.450739221
61884	817325 6679 4964 10129 99 148 197 483.03591918945 793.28282165527 111658.06616974 65247411.52857
61883	824004 6685 4964 10129 99 148 197 483.14999389648 733.5708770752 103578.45996094 55501319.877976
vector 62016  IntersectionExampleScenario.node[46].veinsmobility  posx  ETV
vector 62017  IntersectionExampleScenario.node[46].veinsmobility  posy  ETV
vector 62018  IntersectionExampleScenario.node[46].veinsmobility  speed  ETV
vector 62019  IntersectionExampleScenario.node[46].veinsmobility  acceleration  ETV
vector 62020  IntersectionExampleScenario.node[46].veinsmobility  co2emission  ETV
61901	831090 5613 5539 10259 105.5 149.5 177 0.973 11.810082123732 546.77527077195 3078.9456553688
61900	836703 5593 5539 10259 105.5 149.5 177 -4.0438270568848 2.5 39.869146347046 354.37170205792
61899	842296 5731 5514 10259 105.25 149.5 178 5.5002908706665 15.875 2174.962430954 29243.870247152
61898	848027 6091 5491 10259 105 149.5 179 486.79254150391 785.82187652588 101941.78099823 59802129.397513
61897	854118 6093 5491 10259 105 149.5 179 238.96551513672 483.14999389648 78617.225860596 35458200.667114
61922	860211 5112 6097 10388 111.25 151 160 0.973 11.648172402475 507.09441801646 3006.826100843
61921	865323 4992 6097 10388 111.25 151 160 -4.5 2.5 38.511121749878 252.30618098527
61920	870315 5259 6070 10388 111 151 161 5.6500000953674 15.64999961853 2222.436123848 31389.653183834
61919	875574 5511 6043 10388 110.75 151 162 235.65155029297 785.82187652588 84586.594535828 48332977.090151
61918	881085 5525 6043 10388 110.75 151 162 483.14999389648 483.14999389648 78270.29901123 37816294.489552
vector 62023  IntersectionExampleScenario.node[47].veinsmobility  posx  ETV
vector 62024  IntersectionExampleScenario.node[47].veinsmobility  posy  ETV
vector 62025  IntersectionExampleScenario.node[47].veinsmobility  speed  ETV
vector 62026  IntersectionExampleScenario.node[47].veinsmobility  acceleration  ETV
vector 62027  IntersectionExampleScenario.node[47].veinsmobility  co2emission  ETV
vector 62030  IntersectionExampleScenario.node[48].veinsmobility  posx  ETV
vector 62031  IntersectionExampleScenario.node[48].veinsmobility  posy  ETV
vector 62032  IntersectionExampleScenario.node[48].veinsmobility  speed  ETV
vector 62033  IntersectionExampleScenario.node[48].veinsmobility  acceleration  ETV
vector 62034  IntersectionExampleScenario.node[48].veinsmobility  co2emission  ETV
61936	887412 5304 6916 11134 119.75 159.5 160 0.973 11.648172402475 516.52776841678 2897.4914951699
61935	892716 5135 6916 11134 119.75 159.5 160 -3.4629592895508 2.5 38.341367721558 314.72850912318
61934	897851 5362 6891 11134 119.5 159.5 161 5.6500000953674 15.675666809082 2218.8688230515 31760.103800023
61933	903213 5561 6866 11134 119.25 159.5 162 483.14999389648 483.14999389648 78270.29901123 37816294.489552
61932	908774 5516 6866 11134 119.25 159.5 162 184.17810058594 734.31072998047 72865.225830078 36935767.630536
61908	914290 6801 5564 11197 105.75 160.25 219 0.973 11.648172402475 591.68234916001 2973.147251877
61907	921091 6340 5564 11197 105.75 160.25 219 -27.612075805664 4 38.001859664917 1162.0868434273
61906	927431 6442 5539 11197 105.5 160.25 220 0 15.64999961853 2197.3918952942 31332.073935134
61905	933873 7567 5514 11197 105.25 160.25 221 238.37213134766 486.85000610352 99246.909576416 45636842.605153
61904	941440 7565 5514 11197 105.25 160.25 221 483.14999389648 785.82187652588 121873.97229767 69226782.895606
vector 62037  IntersectionExampleScenario.node[49].veinsmobility  posx  ETV
vector 62038  IntersectionExampleScenario.node[49].veinsmobility  posy  ETV
vector 62039  IntersectionExampleScenario.node[49].veinsmobility  speed  ETV
61915	949237 6669 5993 11295 110.25 161.5 206 0.973 11.810082123732 583.69439506255 3047.7685756189
61914	955906 6609 5993 11295 110.25 161.5 206 -4.5 2.5000004768372 39.699392318726 427.15592230845
61913	962515 6807 5968 11295 110 161.5 207 0 15.875 2186.741014801 30658.789845669
61912	969322 7125 5943 11295 109.75 161.5 208 486.85000610352 733.79945373535 109320.23413086 58466073.222981
61911	976447 7114 5943 11295 109.75 161.5 208 486.85000610352 785.82187652588 115945.60492706 66516875.112878
vector 62040  IntersectionExampleScenario.node[49].veinsmobility  acceleration  ETV
vector 62041  IntersectionExampleScenario.node[49].veinsmobility  co2emission  ETV
61943	983730 5715 7046 11479 121 164 173 0.973 11.200708441096 525.93519230388 2728.9589974059
61942	989445 5604 7046 11479 121 164 173 -4.5 2.5 35.795072555542 296.62691862924
61941	995049 5954 7019 11479 120.75 164 174 5.6500000953674 15.02499961853 2298.0406947136 31428.917955123
61940	1001003 6002 6992 11479 120.5 164 175 483.14999389648 734.5811920166 93469.576934814 50954960.985724
61939	1007005 5999 6992 11479 120.5 164 175 162.90466308594 486.85000610352 68670.828521729 29140701.599205
61929	1013004 5887 6916 11554 119.75 165.25 183 0.97223939240464 11.648172402475 545.64132294074 2717.7000302274
61928	1018891 6055 6916 11554 119.75 165.25 183 -2.667049407959 2.5 38.742540359497 281.60437980972
61927	1024946 6155 6891 11554 119.5 165.25 184 4.5708870887756 15.64999961853 2190.0595374107 28397.266288394
61926	1031101 6362 6866 11554 119.25 165.25 185 486.85000610352 734.43629455566 98714.23260498 53683265.889958
61925	1037463 6356 6866 11554 119.25 165.25 185 486.85000610352 785.82187652588 104891.94965363 61266223.933886
61950	1043819 5841 7135 11619 121.75 166.5 180 0.973 11.706579856884 570.14785914288 3027.0651919027
61949	1049660 5857 7135 11619 121.75 166.5 180 -4.5 2.5000019073486 40.694059371948 378.82773623514
61948	1055517 5956 7104 11619 121.5 166.5 181 4.9272570610046 15.983916282654 2261.5000061989 30561.606547963
61947	1061473 6268 7073 11619 121.25 166.5 182 486.85000610352 734.36637878418 96792.46081543 52451502.170432
61946	1067741 6251 7073 11619 121.25 166.5 182 486.85000610352 803.92188262939 104892.72159576 62486334.107332
vector 62044  IntersectionExampleScenario.node[50].veinsmobility  posx  ETV
vector 62045  IntersectionExampleScenario.node[50].veinsmobility  posy  ETV
vector 62046  IntersectionExampleScenario.node[50].veinsmobility  speed  ETV
vector 62047  IntersectionExampleScenario.node[50].veinsmobility  acceleration  ETV
vector 62048  IntersectionExampleScenario.node[50].veinsmobility  co2emission  ETV
61992	1074393 5220 8712 11978 134.75 173.5 156 0.973 12.099024792222 524.31300131392 3180.5709327429
61991	1079613 4822 8712 11978 134.75 173.5 156 -3.5129089355469 2.5000038146973 40.887662887573 310.07388517587
61990	1084435 5115 8685 11978 134.5 173.5 157 5.6500000953674 16.27499961853 2189.745634079 32112.07302299
61989	1089550 5468 8658 11978 134.25 173.5 158 486.85000610352 734.47782897949 84894.315994263 46520972.061494
61988	1095018 5470 8658 11978 134.25 173.5 158 486.84814453125 785.82187652588 90440.338859558 53482922.946661
vector 62051  IntersectionExampleScenario.node[51].veinsmobility  posx  ETV
vector 62052  IntersectionExampleScenario.node[51].veinsmobility  posy  ETV
vector 62053  IntersectionExampleScenario.node[51].veinsmobility  speed  ETV
vector 62054  IntersectionExampleScenario.node[51].veinsmobility  acceleration  ETV
vector 62055  IntersectionExampleScenario.node[51].veinsmobility  co2emission  ETV
61957	1100889 6804 7135 12083 121.75 175.5 216 0.973 11.450879080643 581.86155840783 2857.4553399898
61956	1107693 6352 7135 12083 121.75 175.5 216 -17.922847747803 4 37.32285118103 755.53160807095
61955	1114045 6492 7104 12083 121.5 175.5 217 0 15.375 2200.4814062119 30956.292420924
61954	1120537 7524 7073 12083 121.25 175.5 218 483.14999389648 785.82187652588 120481.25948334 68603175.057339
61953	1128061 7525 7073 12083 121.25 175.5 218 483.14999389648 733.21885681152 113867.69224548 60565828.393393
vector 62058  IntersectionExampleScenario.node[52].veinsmobility  posx  ETV
vector 62059  IntersectionExampleScenario.node[52].veinsmobility  posy  ETV
vector 62060  IntersectionExampleScenario.node[52].veinsmobility  speed  ETV
vector 62061  IntersectionExampleScenario.node[52].veinsmobility  acceleration  ETV
vector 62062  IntersectionExampleScenario.node[52].veinsmobility  co2emission  ETV
vector 62065  IntersectionExampleScenario.node[53].veinsmobility  posx  ETV
vector 62066  IntersectionExampleScenario.node[53].veinsmobility  posy  ETV
61985	1136141 6087 8065 12151 129 176.75 192 0.973 11.810082123732 555.63834138615 2990.3148425136
61984	1142228 6324 8065 12151 129 176.75 192 -2.5389785766602 2.5000009536743 39.529638290405 316.52264313731
61983	1148552 6376 8032 12151 128.75 176.75 193 1.5356500148773 15.875 2186.8714585304 29438.383749652
61982	1154928 6708 7999 12151 128.5 176.75 194 486.85000610352 785.82187652588 109351.67893219 63447651.719946
61981	1161636 6707 7999 12151 128.5 176.75 194 236.43377685547 483.14999389648 85669.003356934 38817286.852119
vector 62067  IntersectionExampleScenario.node[53].veinsmobility  speed  ETV
vector 62068  IntersectionExampleScenario.node[53].veinsmobility  acceleration  ETV
vector 62069  IntersectionExampleScenario.node[53].veinsmobility  co2emission  ETV
61964	1168590 6909 7294 12241 123 178.25 222 0.973 11.648172402475 591.20049687832 2951.2978374527
61963	1175499 6500 7294 12241 123 178.25 222 -7.3675861358643 4 38.171613693237 498.15642529059
61962	1181999 6655 7261 12241 122.75 178.25 223 0 15.64999961853 2187.8984336853 30730.357995446
61961	1188654 7710 7228 12241 122.5 178.25 224 184.17810058594 483.24322509766 93645.666717529 41138048.866538
61960	1196364 7738 7228 12241 122.5 178.25 224 486.85000610352 735.06184387207 117386.14337158 62580492.587022
61978	1204102 6801 7838 12286 127.25 179 208 0.973 11.648172402475 575.45671818069 2933.1593386179
61977	1210903 6710 7838 12286 127.25 179 208 -4.5 2.5 38.511121749878 442.29421116311
61976	1217613 6834 7803 12286 127 179 209 0 15.64999961853 2141.4993919767 29964.592331338
61975	1224447 7244 7768 12286 126.75 179 210 202.01794433594 732.89907836914 96386.832443237 47986037.468619
61974	1231691 7269 7768 12286 126.75 179 210 486.85000610352 486.85000610352 102238.50128174 49774814.973028
62006	1238960 5239 9313 12346 140.25 180 160 0.973 12.099024792222 568.11646720995 3622.8823378776
62005	1244199 4907 9313 12346 140.25 180 160 -3.2670154571533 2.5 41.396924972534 350.62329394335
62004	1249106 5285 9284 12346 140 180 161 5.6500000953674 16.27499961853 2175.8165450096 30998.327352141
62003	1254391 5628 9255 12346 139.75 180 162 486.85000610352 785.82187652588 92810.613502502 54874966.353006
62002	1260019 5637 9255 12346 139.75 180 162 239.04180908203 483.14999389648 70584.587402344 31634212.441468
vector 62072  IntersectionExampleScenario.node[54].veinsmobility  posx  ETV
vector 62073  IntersectionExampleScenario.node[54].veinsmobility  posy  ETV
vector 62074  IntersectionExampleScenario.node[54].veinsmobility  speed  ETV
61971	1265888 7215 7702 12408 126.25 181.25 221 0.973 11.36141391502 630.93383371941 3117.7676301013
61970	1273103 7179 7702 12408 126.25 181.25 221 -4.5 2.5 40.378400802612 508.72266964379
61969	1280282 7373 7669 12408 126 181.25 222 0 15.793841362 2224.076838268 30263.701981663
61968	1287655 7692 7636 12408 125.75 181.25 223 172.9296875 483.14999389648 90469.30758667 38901111.493273
61967	1295347 7717 7636 12408 125.75 181.25 223 486.85000610352 732.21891784668 116461.0639801 61826108.679901
vector 62075  IntersectionExampleScenario.node[54].veinsmobility  acceleration  ETV
vector 62076  IntersectionExampleScenario.node[54].veinsmobility  co2emission  ETV
61999	1303233 5941 8769 12447 135.25 182 188 0.973 12.099024792222 580.22874024903 3184.2502586127
61998	1309174 6175 8769 12447 135.25 182 188 -2.8017616271973 2.5 43.603719711304 343.32504149657
61997	1315349 6353 8741 12447 135 182 189 1.8041905164719 16.603103637695 2222.5530120134 31147.826566796
61996	1321702 6564 8712 12447 134.75 182 190 184.17810058594 734.1941986084 84552.528701782 41588226.905038
61995	1328266 6601 8712 12447 134.75 182 190 486.85000610352 486.85000610352 92501.501159668 45034356.404169
vector 62079  IntersectionExampleScenario.node[55].veinsmobility  posx  ETV
vector 62080  IntersectionExampleScenario.node[55].veinsmobility  posy  ETV
vector 62081  IntersectionExampleScenario.node[55].veinsmobility  speed  ETV
vector 62082  IntersectionExampleScenario.node[55].veinsmobility  acceleration  ETV
vector 62083  IntersectionExampleScenario.node[55].veinsmobility  co2emission  ETV
vector 62086  IntersectionExampleScenario.node[56].veinsmobility  posx  ETV
vector 62087  IntersectionExampleScenario.node[56].veinsmobility  posy  ETV
vector 62088  IntersectionExampleScenario.node[56].veinsmobility  speed  ETV
vector 62089  IntersectionExampleScenario.node[56].veinsmobility  acceleration  ETV
vector 62090  IntersectionExampleScenario.node[56].veinsmobility  co2emission  ETV
62013	1335669 5971 9968 13007 146.25 191.25 181 0.973 11.648172402475 549.26441258103 2891.1994737118
62012	1341640 5522 9968 13007 146.25 191.25 181 -7.4922709465027 4 38.171613693237 479.41813793154
62011	1347162 5851 9943 13007 146 191.25 182 0 15.64999961853 2175.1208316088 30519.903061611
62010	1353013 6326 9918 13007 145.75 191.25 183 237.46997070312 483.14999389648 80247.662475586 36158510.923713
62009	1359339 6373 9918 13007 145.75 191.25 183 184.17810058594 483.36395263672 74296.548309326 32007160.019955
vector 62093  IntersectionExampleScenario.node[57].veinsmobility  posx  ETV
vector 62094  IntersectionExampleScenario.node[57].veinsmobility  posy  ETV
vector 62095  IntersectionExampleScenario.node[57].veinsmobility  speed  ETV
vector 62096  IntersectionExampleScenario.node[57].veinsmobility  acceleration  ETV
vector 62097  IntersectionExampleScenario.node[57].veinsmobility  co2emission  ETV
62020	1366113 5799 10259 13086 149.5 192.5 173 0.97223939240464 11.648172402475 539.86433815634 2892.628619942
62019	1371912 5414 10259 13086 149.5 192.5 173 -4.5 2.5 38.680875778198 375.40318970068
62018	1377326 5836 10236 13086 149.25 192.5 174 2.6483564376831 15.64999961853 2252.7795851231 31583.74283067
62017	1383162 6116 10213 13086 149 192.5 175 483.14999389648 733.20953369141 92921.175338745 50332665.958818
62016	1389278 6098 10213 13086 149 192.5 175 172.9296875 486.85000610352 69735.725708008 29782471.779729
62027	1395376 5342 10791 13324 155.75 196 162 0.973 11.648172402475 542.78939241934 3278.1344633488
62026	1400718 5162 10791 13324 155.75 196 162 -3.094539642334 2.5 39.020376205444 301.60982519624
62025	1405880 5419 10768 13324 155.5 196 163 5.6500000953674 15.64999961853 2211.0304050446 31005.451340482
62024	1411299 5730 10745 13324 155.25 196 164 483.14999389648 734.1284942627 87622.899841309 47788451.666354
62023	1417029 5713 10745 13324 155.25 196 164 184.17810058594 486.86447143555 65288.588592529 27762599.59057
62034	1422742 5283 10997 13358 158 196.5 155 0.973 11.648172402475 499.9571325877 2685.6918688045
62033	1428025 4748 10997 13358 158 196.5 155 -3.2846527099609 2.5 39.869146347046 235.44210448591
62032	1432773 5179 10974 13358 157.75 196.5 156 5.6500000953674 15.666296005249 2211.3984127045 32386.092920075
62031	1437952 5485 10951 13358 157.5 196.5 157 236.18872070312 486.85000610352 68173.147888184 30545682.855889
62030	1443437 5487 10951 13358 157.5 196.5 157 483.14999389648 785.82187652588 89785.977348328 53106735.302482
62041	1448924 5524 11315 13682 161.75 201.75 161 0.973 11.200708441096 460.34319213158 2221.1166157111
62040	1454448 5244 11315 13682 161.75 201.75 161 -3.1934471130371 2.5 35.964826583862 170.96186643598
62039	1459692 5450 11295 13682 161.5 201.75 162 5.6500000953674 15.02499961853 2248.3488702774 31725.105543133
62038	1465142 5707 11274 13682 161.25 201.75 163 486.85000610352 486.85000610352 79356.550994873 38634737.336208
62037	1470849 5684 11274 13682 161.25 201.75 163 236.61016845703 793.78281402588 85468.071510315 49259944.767637
vector 62100  IntersectionExampleScenario.node[58].veinsmobility  posx  ETV
vector 62101  IntersectionExampleScenario.node[58].veinsmobility  posy  ETV
vector 62102  IntersectionExampleScenario.node[58].veinsmobility  speed  ETV
vector 62103  IntersectionExampleScenario.node[58].veinsmobility  acceleration  ETV
vector 62104  IntersectionExampleScenario.node[58].veinsmobility  co2emission  ETV
vector 62107  IntersectionExampleScenario.node[59].veinsmobility  posx  ETV
vector 62108  IntersectionExampleScenario.node[59].veinsmobility  posy  ETV
vector 62109  IntersectionExampleScenario.node[59].veinsmobility  speed  ETV
vector 62114  IntersectionExampleScenario.node[60].veinsmobility  posx  ETV
vector 62115  IntersectionExampleScenario.node[60].veinsmobility  posy  ETV
vector 62110  IntersectionExampleScenario.node[59].veinsmobility  acceleration  ETV
vector 62111  IntersectionExampleScenario.node[59].veinsmobility  co2emission  ETV
vector 62116  IntersectionExampleScenario.node[60].veinsmobility  speed  ETV
vector 62117  IntersectionExampleScenario.node[60].veinsmobility  acceleration  ETV
vector 62118  IntersectionExampleScenario.node[60].veinsmobility  co2emission  ETV
vector 62121  IntersectionExampleScenario.node[61].veinsmobility  posx  ETV
vector 62122  IntersectionExampleScenario.node[61].veinsmobility  posy  ETV
vector 62123  IntersectionExampleScenario.node[61].veinsmobility  speed  ETV
vector 62128  IntersectionExampleScenario.node[62].veinsmobility  posx  ETV
vector 62129  IntersectionExampleScenario.node[62].veinsmobility  posy  ETV
vector 62124  IntersectionExampleScenario.node[61].veinsmobility  acceleration  ETV
vector 62125  IntersectionExampleScenario.node[61].veinsmobility  co2emission  ETV
vector 62130  IntersectionExampleScenario.node[62].veinsmobility  speed  ETV
vector 62131  IntersectionExampleScenario.node[62].veinsmobility  acceleration  ETV
vector 62132  IntersectionExampleScenario.node[62].veinsmobility  co2emission  ETV
vector 62135  IntersectionExampleScenario.node[63].veinsmobility  posx  ETV
vector 62136  IntersectionExampleScenario.node[63].veinsmobility  posy  ETV
vector 62137  IntersectionExampleScenario.node[63].veinsmobility  speed  ETV
vector 62138  IntersectionExampleScenario.node[63].veinsmobility  acceleration  ETV
vector 62139  IntersectionExampleScenario.node[63].veinsmobility  co2emission  ETV
62055	1478939 5277 12057 14542 175 213.75 156 0.973 12.099024792222 519.1732516405 3010.8909347161
62054	1484216 5015 12057 14542 175 213.75 156 -3.3001174926758 2.5 40.378400802612 295.58413656871
62053	1489231 5170 12044 14542 174.75 213.75 157 5.6500000953674 16.27499961853 2181.9524784088 31860.579051152
62052	1494401 5504 12030 14542 174.5 213.75 158 184.17810058594 483.18841552734 62799.437042236 26675614.576856
62051	1499905 5523 12030 14542 174.5 213.75 158 486.85000610352 732.64247131348 84833.884811401 46443302.144765
vector 62142  IntersectionExampleScenario.node[64].veinsmobility  posx  ETV
vector 62143  IntersectionExampleScenario.node[64].veinsmobility  posy  ETV
vector 62144  IntersectionExampleScenario.node[64].veinsmobility  speed  ETV
vector 62145  IntersectionExampleScenario.node[64].veinsmobility  acceleration  ETV
vector 62146  IntersectionExampleScenario.node[64].veinsmobility  co2emission  ETV
62048	1505829 6926 11705 15231 168.25 222.5 218 0.973 11.450879080643 578.28799095409 2813.7909002476
62047	1512755 6345 11705 15231 168.25 222.5 218 -7.3266034126282 4 36.98334312439 475.90297776602
62046	1519100 6684 11692 15231 168 222.5 219 0 15.375 2196.8628345728 30506.456718753
62045	1525784 7698 11679 15231 167.75 222.5 220 237.87945556641 486.85000610352 98595.112426758 45270276.508865
62044	1533482 7692 11679 15231 167.75 222.5 220 483.14999389648 785.82187652588 121559.65320587 69190422.526695
62062	1541174 6322 12138 15388 176.5 225 195 0.973 11.648172402475 565.57388597759 2917.7723531427
62061	1547496 5885 12138 15388 176.5 225 195 -7.7750906944275 4 38.511121749878 493.68209661529
62060	1553381 6168 12124 15388 176.25 225 196 0 15.64999961853 2176.9151037931 30653.232840011
62059	1559549 6882 12109 15388 176 225 197 237.63348388672 483.14999389648 87067.801483154 39470796.053934
62058	1566431 6868 12109 15388 176 225 197 184.17810058594 483.24322509766 80928.397033691 35142706.323483
vector 62149  IntersectionExampleScenario.node[65].veinsmobility  posx  ETV
vector 62150  IntersectionExampleScenario.node[65].veinsmobility  posy  ETV
62069	1573453 6282 12181 15463 177.25 226.25 197 0.973 12.099024792222 584.13845134424 3159.175475504
62068	1579735 6901 12181 15463 177.25 226.25 197 -4.5 2.5 41.434881210327 357.60335637067
62067	1586636 6899 12166 15463 177 226.25 198 2.008730173111 16.27499961853 2207.5286030769 29980.459605056
62066	1593535 6959 12151 15463 176.75 226.25 199 235.94390869141 486.85000610352 88694.584564209 40556849.418728
62065	1600494 6942 12151 15463 176.75 226.25 199 482.89538574219 785.82187652588 111415.51319122 64240440.637185
vector 62151  IntersectionExampleScenario.node[65].veinsmobility  speed  ETV
vector 62152  IntersectionExampleScenario.node[65].veinsmobility  acceleration  ETV
vector 62153  IntersectionExampleScenario.node[65].veinsmobility  co2emission  ETV
62083	1607683 5767 12503 15496 183 226.75 176 0.973 12.26218747632 573.95903360048 3481.9571172887
62082	1613450 5705 12503 15496 183 226.75 176 -3.4910259246826 2.5 41.396924972534 383.12575690999
62081	1619155 5845 12488 15496 182.75 226.75 177 5.5131916999817 16.5 2180.4846959114 29616.074975021
62080	1625000 6221 12473 15496 182.5 226.75 178 486.85000610352 732.47616577148 94438.217407227 51031747.749133
62079	1631221 6224 12473 15496 182.5 226.75 178 486.85000610352 785.82187652588 101511.10385895 59613140.257088
vector 62156  IntersectionExampleScenario.node[66].veinsmobility  posx  ETV
vector 62157  IntersectionExampleScenario.node[66].veinsmobility  posy  ETV
vector 62163  IntersectionExampleScenario.node[67].veinsmobility  posx  ETV
vector 62164  IntersectionExampleScenario.node[67].veinsmobility  posy  ETV
vector 62158  IntersectionExampleScenario.node[66].veinsmobility  speed  ETV
vector 62159  IntersectionExampleScenario.node[66].veinsmobility  acceleration  ETV
vector 62160  IntersectionExampleScenario.node[66].veinsmobility  co2emission  ETV
vector 62165  IntersectionExampleScenario.node[67].veinsmobility  speed  ETV
vector 62166  IntersectionExampleScenario.node[67].veinsmobility  acceleration  ETV
vector 62167  IntersectionExampleScenario.node[67].veinsmobility  co2emission  ETV
vector 62170  IntersectionExampleScenario.node[68].veinsmobility  posx  ETV
vector 62171  IntersectionExampleScenario.node[68].veinsmobility  posy  ETV
vector 62172  IntersectionExampleScenario.node[68].veinsmobility  speed  ETV
vector 62173  IntersectionExampleScenario.node[68].veinsmobility  acceleration  ETV
vector 62174  IntersectionExampleScenario.node[68].veinsmobility  co2emission  ETV
vector 62177  IntersectionExampleScenario.node[69].veinsmobility  posx  ETV
vector 62178  IntersectionExampleScenario.node[69].veinsmobility  posy  ETV
vector 62184  IntersectionExampleScenario.node[70].veinsmobility  posx  ETV
vector 62185  IntersectionExampleScenario.node[70].veinsmobility  posy  ETV
vector 62179  IntersectionExampleScenario.node[69].veinsmobility  speed  ETV
vector 62191  IntersectionExampleScenario.node[71].veinsmobility  posx  ETV
vector 62192  IntersectionExampleScenario.node[71].veinsmobility  posy  ETV
vector 62180  IntersectionExampleScenario.node[69].veinsmobility  acceleration  ETV
vector 62181  IntersectionExampleScenario.node[69].veinsmobility  co2emission  ETV
vector 62186  IntersectionExampleScenario.node[70].veinsmobility  speed  ETV
vector 62187  IntersectionExampleScenario.node[70].veinsmobility  acceleration  ETV
vector 62188  IntersectionExampleScenario.node[70].veinsmobility  co2emission  ETV
vector 62193  IntersectionExampleScenario.node[71].veinsmobility  speed  ETV
62090	1639682 6704 12612 16198 184.75 237 210 0.973 11.90022389248 595.50610138047 3121.781691134
62089	1646386 6121 12612 16198 184.75 237 210 -10.080669403076 4 39.699392318726 563.56085870487
62088	1652507 6454 12595 16198 184.5 237 211 0 16 2216.0171151161 32174.040661725
62087	1658961 7391 12578 16198 184.25 237 212 184.17810058594 734.53973388672 96424.761779785 47984742.939893
62086	1666352 7420 12578 16198 184.25 237 212 486.85000610352 486.85000610352 103212.20129395 50248860.829914
vector 62194  IntersectionExampleScenario.node[71].veinsmobility  acceleration  ETV
vector 62195  IntersectionExampleScenario.node[71].veinsmobility  co2emission  ETV
62076	1673941 7295 12421 16296 181.5 238.25 228 0.973 11.00486315618 571.59099591906 2590.9933811825
62075	1681236 6467 12421 16296 181.5 238.25 228 -42.328258514404 4 33.927785873413 2087.6726461631
62074	1687703 6931 12408 16296 181.25 238.25 229 0 14.75 2205.9113969803 29876.263078369
62073	1694634 8035 12395 16296 181 238.25 230 237.69488525391 785.82187652588 118233.20684814 65153876.808359
62072	1702669 8049 12395 16296 181 238.25 230 483.14999389648 483.14999389648 111124.49859619 53689800.8185
62097	1710718 6104 13086 16407 192.5 239.75 190 0.97223939240464 11.648172402475 564.92922841577 2991.9698986337
62096	1716822 6546 13086 16407 192.5 239.75 190 -2.1732063293457 2.5 39.101102828979 299.36790483283
62095	1723368 6571 13069 16407 192.25 239.75 191 2.3325357437134 15.670981407166 2220.6380245686 29397.39317713
62094	1729939 6700 13052 16407 192 239.75 192 235.56372070312 785.82187652588 99668.382377625 55998588.533897
62093	1736639 6720 13052 16407 192 239.75 192 483.14999389648 483.14999389648 92764.798828125 44819311.987617
vector 62198  IntersectionExampleScenario.node[72].veinsmobility  posx  ETV
vector 62199  IntersectionExampleScenario.node[72].veinsmobility  posy  ETV
vector 62200  IntersectionExampleScenario.node[72].veinsmobility  speed  ETV
vector 62201  IntersectionExampleScenario.node[72].veinsmobility  acceleration  ETV
vector 62202  IntersectionExampleScenario.node[72].veinsmobility  co2emission  ETV
62104	1743760 5499 13776 16658 203.25 243.5 162 0.973 11.36141391502 502.43922526275 2693.0135888121
62103	1749259 5332 13776 16658 203.25 243.5 162 -4.1580200195312 2.5 36.813589096069 284.94156868698
62102	1754591 5386 13759 16658 203 243.5 163 5.6500000953674 15.25 2180.364859581 30375.997276814
62101	1759977 5716 13742 16658 202.75 243.5 164 184.17810058594 483.14999389648 65180.455230713 27668601.303895
62100	1765693 5728 13742 16658 202.75 243.5 164 486.85000610352 732.47749328613 88180.899307251 48352018.782842
vector 62205  IntersectionExampleScenario.node[73].veinsmobility  posx  ETV
vector 62206  IntersectionExampleScenario.node[73].veinsmobility  posy  ETV
62118	1771575 5367 14068 16896 207.5 247 159 0.973 11.810082123732 508.49538687659 2854.0891032743
62117	1776942 5078 14068 16896 207.5 247 159 -3.5987949371338 2.5 38.511121749878 289.97426918725
62116	1782020 5271 14049 16896 207.25 247 160 5.6500000953674 15.875 2187.4260525703 31251.806350984
62115	1787291 5622 14030 16896 207 247 161 486.6611328125 785.82187652588 92175.98639679 54512584.595682
62114	1792913 5630 14030 16896 207 247 161 236.08911132812 483.14999389648 69584.890655518 31005018.71986
vector 62207  IntersectionExampleScenario.node[73].veinsmobility  speed  ETV
vector 62208  IntersectionExampleScenario.node[73].veinsmobility  acceleration  ETV
vector 62209  IntersectionExampleScenario.node[73].veinsmobility  co2emission  ETV
62132	1798790 5480 14242 17100 209.75 249.75 161 0.973 11.54047740176 474.08122847922 2382.6681475185
62131	1804270 5156 14242 17100 209.75 249.75 161 -3.0300407409668 2.5 36.98334312439 180.99736578539
62130	1809426 5430 14221 17100 209.5 249.75 162 5.6500000953674 15.5 2280.7314910889 32677.413175831
62129	1814856 5688 14200 17100 209.25 249.75 163 237.53753662109 802.70781707764 86346.440032959 50318246.226812
62128	1820544 5707 14200 17100 209.25 249.75 163 483.14999389648 483.14999389648 78753.449005127 38049728.406154
62139	1826251 5340 14447 17202 212.5 251.25 156 0.973 11.54047740176 464.63231158543 2336.4085283449
62138	1831591 4773 14447 17202 212.5 251.25 156 -2.906135559082 2.5 37.32285118103 179.22973075835
62137	1836364 5260 14428 17202 212.25 251.25 157 5.6500000953674 15.5 2216.590294838 31875.992361842
62136	1841624 5456 14409 17202 212 251.25 158 184.17810058594 733.22798156738 70908.541702271 36014724.094117
62135	1847080 5529 14409 17202 212 251.25 158 486.85000610352 486.85000610352 76922.300964355 37449622.693993
vector 62212  IntersectionExampleScenario.node[74].veinsmobility  posx  ETV
vector 62213  IntersectionExampleScenario.node[74].veinsmobility  posy  ETV
vector 62214  IntersectionExampleScenario.node[74].veinsmobility  speed  ETV
vector 62215  IntersectionExampleScenario.node[74].veinsmobility  acceleration  ETV
vector 62216  IntersectionExampleScenario.node[74].veinsmobility  co2emission  ETV
62111	1853010 6137 14030 17376 207 253.75 188 0.973 11.648172402475 569.36939142864 2961.9805792067
62110	1859147 5609 14030 17376 207 253.75 188 -6.9388580322266 4 39.869146347046 475.5675377335
62109	1864756 5969 14013 17376 206.75 253.75 189 0 15.668755531311 2181.7748150826 31268.236988326
62108	1870725 6585 13996 17376 206.5 253.75 190 486.85000610352 733.93307495117 100554.60269165 54196455.810922
62107	1877310 6642 13996 17376 206.5 253.75 190 486.63604736328 785.82187652588 106528.06597137 61592082.725875
62125	1883952 6143 14200 17509 209.25 255.5 186 0.973 11.54047740176 546.49919664392 2787.2717128407
62124	1890095 5924 14200 17509 209.25 255.5 186 -4.5 2.5000002384186 36.98334312439 421.8927355658
62123	1896019 6368 14181 17509 209 255.5 187 0 15.5 2283.4718220755 31484.525737692
62122	1902387 6580 14162 17509 208.75 255.5 188 486.85000610352 486.85000610352 91527.801147461 44560310.547283
62121	1908967 6550 14162 17509 208.75 255.5 188 236.275390625 802.70781707764 98955.092681885 56704319.811952
vector 62219  IntersectionExampleScenario.node[75].veinsmobility  posx  ETV
vector 62220  IntersectionExampleScenario.node[75].veinsmobility  posy  ETV
62146	1915671 5446 14850 17642 217.75 257.25 159 0.973 11.200708441096 454.35911991347 2192.1748794677
62145	1921117 4951 14850 17642 217.75 257.25 159 -2.9507179260254 2.5 35.795072555542 167.29327392471
62144	1926068 5384 14829 17642 217.5 257.25 160 5.6500000953674 15.02499961853 2213.0092506409 31119.00031273
62143	1931452 5636 14808 17642 217.25 257.25 161 483.14999389648 483.14999389648 77787.149017334 37582860.57295
62142	1937088 5607 14808 17642 217.25 257.25 161 184.17810058594 732.51210021973 72318.647140503 36736366.211433
vector 62221  IntersectionExampleScenario.node[75].veinsmobility  speed  ETV
vector 62222  IntersectionExampleScenario.node[75].veinsmobility  acceleration  ETV
vector 62223  IntersectionExampleScenario.node[75].veinsmobility  co2emission  ETV
vector 62226  IntersectionExampleScenario.node[76].veinsmobility  posx  ETV
vector 62227  IntersectionExampleScenario.node[76].veinsmobility  posy  ETV
vector 62228  IntersectionExampleScenario.node[76].veinsmobility  speed  ETV
vector 62229  IntersectionExampleScenario.node[76].veinsmobility  acceleration  ETV
vector 62230  IntersectionExampleScenario.node[76].veinsmobility  co2emission  ETV
vector 62233  IntersectionExampleScenario.node[77].veinsmobility  posx  ETV
vector 62234  IntersectionExampleScenario.node[77].veinsmobility  posy  ETV
vector 62235  IntersectionExampleScenario.node[77].veinsmobility  speed  ETV
vector 62236  IntersectionExampleScenario.node[77].veinsmobility  acceleration  ETV
vector 62237  IntersectionExampleScenario.node[77].veinsmobility  co2emission  ETV
62153	1943744 5201 15496 18264 226.75 264.75 153 0.973 12.099024792222 507.30575482299 2919.4910608435
62152	1948945 4916 15496 18264 226.75 264.75 153 -3.4315872192383 2.5 40.887662887573 254.91801141194
62151	1953861 5094 15480 18264 226.5 264.75 154 5.6500000953674 16.27499961853 2210.0126714706 32836.974628828
62150	1958955 5420 15463 18264 226.25 264.75 155 236.57580566406 486.85000610352 67350.022064209 30190523.614341
62149	1964375 5415 15463 18264 226.25 264.75 155 483.14999389648 785.82187652588 88658.458869934 52454298.577857
vector 62240  IntersectionExampleScenario.node[78].veinsmobility  posx  ETV
vector 62241  IntersectionExampleScenario.node[78].veinsmobility  posy  ETV
vector 62242  IntersectionExampleScenario.node[78].veinsmobility  speed  ETV
vector 62243  IntersectionExampleScenario.node[78].veinsmobility  acceleration  ETV
vector 62244  IntersectionExampleScenario.node[78].veinsmobility  co2emission  ETV
vector 62247  IntersectionExampleScenario.node[79].veinsmobility  posx  ETV
vector 62248  IntersectionExampleScenario.node[79].veinsmobility  posy  ETV
vector 62249  IntersectionExampleScenario.node[79].veinsmobility  speed  ETV
vector 62250  IntersectionExampleScenario.node[79].veinsmobility  acceleration  ETV
vector 62251  IntersectionExampleScenario.node[79].veinsmobility  co2emission  ETV
vector 62254  IntersectionExampleScenario.node[80].veinsmobility  posx  ETV
vector 62255  IntersectionExampleScenario.node[80].veinsmobility  posy  ETV
vector 62256  IntersectionExampleScenario.node[80].veinsmobility  speed  ETV
vector 62257  IntersectionExampleScenario.node[80].veinsmobility  acceleration  ETV
vector 62258  IntersectionExampleScenario.node[80].veinsmobility  co2emission  ETV
62181	1970993 5191 16177 18992 236.75 274.5 152 0.973 11.990504229548 480.56587504167 2612.2460010431
62180	1976184 4755 16177 18992 236.75 274.5 152 -3.0983085632324 2.5 39.699392318726 198.74124400146
62179	1980939 5105 16158 18992 236.5 274.5 153 5.6500000953674 16.125 2223.7700643539 33036.011175474
62178	1986044 5352 16141 18992 236.25 274.5 154 184.17810058594 734.81689453125 69104.698577881 35120460.892283
62177	1991396 5391 16141 18992 236.25 274.5 154 486.85000610352 486.85000610352 74974.900939941 36501530.980221
vector 62261  IntersectionExampleScenario.node[81].veinsmobility  posx  ETV
vector 62262  IntersectionExampleScenario.node[81].veinsmobility  posy  ETV
vector 62263  IntersectionExampleScenario.node[81].veinsmobility  speed  ETV
vector 62264  IntersectionExampleScenario.node[81].veinsmobility  acceleration  ETV
vector 62265  IntersectionExampleScenario.node[81].veinsmobility  co2emission  ETV
62195	1997188 5783 16219 19317 237.25 279.5 170 0.973 11.093806525473 463.61755932385 2078.361557517
62194	2002971 5366 16219 19317 237.25 279.5 170 -3.001148223877 2.5 34.437047958374 152.8762617941
62193	2008337 5760 16198 19317 237 279.5 171 5.6500000953674 14.875 2313.2516069412 31807.387835151
62192	2014097 5993 16177 19317 236.75 279.5 172 160.43438720703 733.9241027832 75123.156784058 37817773.670621
62191	2020090 6020 16177 19317 236.75 279.5 172 486.85000610352 486.85000610352 83738.201049805 40767943.692195
vector 62268  IntersectionExampleScenario.node[82].veinsmobility  posx  ETV
vector 62269  IntersectionExampleScenario.node[82].veinsmobility  posy  ETV
vector 62270  IntersectionExampleScenario.node[82].veinsmobility  speed  ETV
vector 62271  IntersectionExampleScenario.node[82].veinsmobility  acceleration  ETV
vector 62272  IntersectionExampleScenario.node[82].veinsmobility  co2emission  ETV
62202	2026511 5585 16556 19525 242 282.75 164 0.973 11.450879080643 489.04904796983 2430.1691934245
62201	2032096 5108 16556 19525 242 282.75 164 -3.2205200195312 2.5 36.813589096069 214.25494074027
62200	2037204 5486 16539 19525 241.75 282.75 165 5.6500000953674 15.375 2261.682050705 31832.398765117
62199	2042690 5805 16522 19525 241.5 282.75 166 169.28839111328 486.85000610352 65081.250091553 27549619.082012
62198	2048495 5799 16522 19525 241.5 282.75 166 238.28594970703 486.85000610352 72304.894714355 32468093.491341
vector 62275  IntersectionExampleScenario.node[83].veinsmobility  posx  ETV
vector 62276  IntersectionExampleScenario.node[83].veinsmobility  posy  ETV
vector 62277  IntersectionExampleScenario.node[83].veinsmobility  speed  ETV
vector 62278  IntersectionExampleScenario.node[83].veinsmobility  acceleration  ETV
vector 62279  IntersectionExampleScenario.node[83].veinsmobility  co2emission  ETV
62188	2054695 6047 16198 19594 237 283.75 188 0.973 12.242896282449 618.02336098413 3592.3173418459
62187	2060742 5754 16198 19594 237 283.75 188 -7.0093650817871 4 43.29372215271 528.55766741249
62186	2066496 6088 16177 19594 236.75 283.75 189 0 16.473430633545 2202.5277798176 32384.880772413
62185	2072584 6651 16158 19594 236.5 283.75 190 486.85000610352 486.85000610352 92501.501159668 45034356.404169
62184	2079235 6629 16158 19594 236.5 283.75 190 239.40856933594 785.82187652588 98157.819725037 54740516.783649
vector 62282  IntersectionExampleScenario.node[84].veinsmobility  posx  ETV
vector 62283  IntersectionExampleScenario.node[84].veinsmobility  posy  ETV
vector 62284  IntersectionExampleScenario.node[84].veinsmobility  speed  ETV
vector 62285  IntersectionExampleScenario.node[84].veinsmobility  acceleration  ETV
vector 62286  IntersectionExampleScenario.node[84].veinsmobility  co2emission  ETV
62160	2086265 7200 15607 19685 228.5 285 227 0.973 11.00486315618 570.78132339087 2573.0602732152
62159	2093465 6315 15607 19685 228.5 285 227 -25.537048339844 4 34.437047958374 1031.9865603378
62158	2099780 6888 15588 19685 228.25 285 228 0 14.75 2187.9825944901 29571.842496712
62157	2106668 8002 15571 19685 228 285 229 483.14999389648 735.1202545166 119720.73313904 63758165.064389
62156	2114670 7986 15571 19685 228 285 229 184.17810058594 486.85000610352 95779.417999268 42138356.308324
62167	2122656 7870 15626 19847 228.75 287.25 235 0.973 11.00486315618 612.66392748493 2723.5325885772
62166	2130526 7711 15626 19847 228.75 287.25 235 -4.5 2.5 38.001859664917 438.88845375455
62165	2138237 7993 15607 19847 228.5 287.25 236 0 15.184867858887 2305.4919834184 31923.201018739
62164	2146230 8293 15588 19847 228.25 287.25 237 483.14999389648 733.64346313477 122994.07543945 64941715.473101
62163	2154523 8257 15588 19847 228.25 287.25 237 159.76721191406 487.05258178711 96801.990814209 42099230.976668
vector 62289  IntersectionExampleScenario.node[85].veinsmobility  posx  ETV
vector 62290  IntersectionExampleScenario.node[85].veinsmobility  posy  ETV
62174	2162934 7265 15997 19966 234 289 221 0.973 11.648172402475 604.19252151169 2990.5518395866
62173	2170199 7284 15997 19966 234 289 221 -4.47216796875 2.5 40.038900375366 388.30563581889
62172	2177483 7523 15980 19966 233.75 289 222 0 15.721110343933 2262.3815887049 31482.596336316
62171	2185006 7796 15962 19966 233.5 289 223 483.14999389648 733.79234313965 115980.9225769 61390705.259547
62170	2192802 7784 15962 19966 233.5 289 223 171.26672363281 486.85000610352 91509.699127197 39680446.432208
vector 62291  IntersectionExampleScenario.node[85].veinsmobility  speed  ETV
vector 62292  IntersectionExampleScenario.node[85].veinsmobility  acceleration  ETV
vector 62293  IntersectionExampleScenario.node[85].veinsmobility  co2emission  ETV
vector 62296  IntersectionExampleScenario.node[86].veinsmobility  posx  ETV
vector 62297  IntersectionExampleScenario.node[86].veinsmobility  posy  ETV
vector 62298  IntersectionExampleScenario.node[86].veinsmobility  speed  ETV
vector 62299  IntersectionExampleScenario.node[86].veinsmobility  acceleration  ETV
vector 62300  IntersectionExampleScenario.node[86].veinsmobility  co2emission  ETV
62216	2201234 5211 17376 20229 253.75 292.5 156 0.973 11.90022389248 525.30742345747 3196.7567311486
62215	2206445 5042 17376 20229 253.75 292.5 156 -3.4293594360352 2.5 39.869146347046 274.27353445662
62214	2211487 5196 17357 20229 253.5 292.5 157 5.6500000953674 16 2206.6155071259 32012.829760573
62213	2216683 5521 17338 20229 253.25 292.5 158 483.14999389648 732.96875 84534.293991089 46166758.748548
62212	2222204 5511 17338 20229 253.25 292.5 158 184.17810058594 487.05169677734 62827.08581543 26737170.101712
vector 62303  IntersectionExampleScenario.node[87].veinsmobility  posx  ETV
vector 62304  IntersectionExampleScenario.node[87].veinsmobility  posy  ETV
vector 62305  IntersectionExampleScenario.node[87].veinsmobility  speed  ETV
vector 62306  IntersectionExampleScenario.node[87].veinsmobility  acceleration  ETV
vector 62307  IntersectionExampleScenario.node[87].veinsmobility  co2emission  ETV
62223	2228116 5286 17684 20524 257.75 296.5 156 0.973 11.90022389248 499.64040463708 2790.4237014526
62222	2233402 5172 17684 20524 257.75 296.5 156 -3.5189094543457 2.5 39.699392318726 240.76543158648
62221	2238574 5199 17663 20524 257.5 296.5 157 5.6500000953674 16 2228.6195707321 32647.222515467
62220	2243773 5519 17642 20524 257.25 296.5 158 483.14999389648 732.42694091797 84519.91947937 46147627.36532
62219	2249292 5500 17642 20524 257.25 296.5 158 177.97814941406 487.06143188477 62435.295379639 26518380.503399
vector 62310  IntersectionExampleScenario.node[88].veinsmobility  posx  ETV
vector 62311  IntersectionExampleScenario.node[88].veinsmobility  posy  ETV
vector 62312  IntersectionExampleScenario.node[88].veinsmobility  speed  ETV
vector 62313  IntersectionExampleScenario.node[88].veinsmobility  acceleration  ETV
vector 62314  IntersectionExampleScenario.node[88].veinsmobility  co2emission  ETV
62209	2255193 6626 16934 20703 247.5 299 207 0.973 11.648172402475 581.70100281727 2976.3542850199
62208	2261819 5980 16934 20703 247.5 299 207 -6.8117866516113 4 38.850629806519 473.41515502781
62207	2267799 6441 16915 20703 247.25 299 208 0 15.64999961853 2204.3913049698 31457.643736509
62206	2274240 7300 16896 20703 247 299 209 238.74694824219 785.82187652588 107934.76560211 59837982.647444
62205	2281540 7313 16896 20703 247 299 209 483.14999389648 483.14999389648 100978.34872437 48787688.569854
vector 62317  IntersectionExampleScenario.node[89].veinsmobility  posx  ETV
vector 62318  IntersectionExampleScenario.node[89].veinsmobility  posy  ETV
vector 62319  IntersectionExampleScenario.node[89].veinsmobility  speed  ETV
vector 62320  IntersectionExampleScenario.node[89].veinsmobility  acceleration  ETV
vector 62321  IntersectionExampleScenario.node[89].veinsmobility  co2emission  ETV
62230	2289254 5708 17906 20987 260.5 303.25 172 0.973 11.36141391502 541.58857112727 3039.8094878148
62229	2294962 5597 17906 20987 260.5 303.25 172 -3.3895797729492 2.5 36.304327011108 339.80008837653
62228	2300559 5735 17885 20987 260.25 303.25 173 5.6500000953674 15.25 2188.2540230751 29112.835090619
62227	2306294 6080 17864 20987 260 303.25 174 486.85000610352 785.82187652588 99340.187965393 58496554.617389
62226	2312374 6087 17864 20987 260 303.25 174 235.77532958984 483.14999389648 75551.085662842 33790045.916026
vector 62324  IntersectionExampleScenario.node[90].veinsmobility  posx  ETV
vector 62325  IntersectionExampleScenario.node[90].veinsmobility  posy  ETV
vector 62326  IntersectionExampleScenario.node[90].veinsmobility  speed  ETV
vector 62327  IntersectionExampleScenario.node[90].veinsmobility  acceleration  ETV
vector 62328  IntersectionExampleScenario.node[90].veinsmobility  co2emission  ETV
62244	2318862 5457 18433 21285 266.75 307.25 163 0.973 11.36141391502 535.12881560418 3135.7229467993
62243	2324319 5310 18433 21285 266.75 307.25 163 -3.3002433776855 2.5 37.32285118103 322.87933343355
62242	2329629 5419 18412 21285 266.5 307.25 164 5.6500000953674 15.25 2186.6259393692 30395.310816949
62241	2335048 5773 18390 21285 266.25 307.25 165 486.83193969727 785.82187652588 94446.815177917 55825370.997991
62240	2340821 5769 18390 21285 266.25 307.25 165 235.63208007812 483.14999389648 71319.428894043 31781510.675497
vector 62331  IntersectionExampleScenario.node[91].veinsmobility  posx  ETV
vector 62332  IntersectionExampleScenario.node[91].veinsmobility  posy  ETV
vector 62333  IntersectionExampleScenario.node[91].veinsmobility  speed  ETV
vector 62334  IntersectionExampleScenario.node[91].veinsmobility  acceleration  ETV
vector 62335  IntersectionExampleScenario.node[91].veinsmobility  co2emission  ETV
vector 62338  IntersectionExampleScenario.node[92].veinsmobility  posx  ETV
vector 62339  IntersectionExampleScenario.node[92].veinsmobility  posy  ETV
vector 62340  IntersectionExampleScenario.node[92].veinsmobility  speed  ETV
vector 62341  IntersectionExampleScenario.node[92].veinsmobility  acceleration  ETV
vector 62342  IntersectionExampleScenario.node[92].veinsmobility  co2emission  ETV
vector 62345  IntersectionExampleScenario.node[93].veinsmobility  posx  ETV
vector 62346  IntersectionExampleScenario.node[93].veinsmobility  posy  ETV
vector 62347  IntersectionExampleScenario.node[93].veinsmobility  speed  ETV
vector 62348  IntersectionExampleScenario.node[93].veinsmobility  acceleration  ETV
vector 62349  IntersectionExampleScenario.node[93].veinsmobility  co2emission  ETV
vector 62352  IntersectionExampleScenario.node[94].veinsmobility  posx  ETV
[...]
65308	16265561 6958 126554 130982 1686.5 1740.75 218 0 16.27499961853 2212.4959316254 32776.95237517
65307	16272519 8105 126533 130982 1686.25 1740.75 219 483.14999389648 483.14999389648 105809.84866333 51122027.735876
65306	16280624 8071 126533 130982 1686.25 1740.75 219 184.17810058594 732.22775268555 99635.412994385 49384637.652982
65324	16288695 6739 127042 131050 1693 1741.5 195 0.973 11.450879080643 554.41275093754 2786.5005109631
65323	16295434 6270 127042 131050 1693 1741.5 195 -8.2099418640137 4 36.813589096069 483.06962067089
65322	16301704 6593 127021 131050 1692.75 1741.5 196 0 15.375 2194.1593661308 30391.90381451
65321	16308297 7279 127000 131050 1692.5 1741.5 197 238.42358398438 486.85000610352 87411.860900879 39827359.134839
65320	16315576 7281 127000 131050 1692.5 1741.5 197 483.14999389648 785.82187652588 110119.25348663 63503274.078507
65317	16322857 7172 126924 131197 1691.5 1743.25 208 0.97223939240464 11.648172402475 574.52664413122 2923.0231698557
65316	16330029 7433 126924 131197 1691.5 1743.25 208 -3.7610402107239 2.5 38.680875778198 358.4464034603
65315	16337462 7568 126905 131197 1691.25 1743.25 209 0 15.64999961853 2218.3051867969 30360.469262684
65314	16345030 7769 126886 131197 1691 1743.25 210 483.14999389648 483.14999389648 101461.49871826 49021122.486456
65313	16352799 7731 126886 131197 1691 1743.25 210 184.17810058594 733.94078063965 94749.717132568 46899291.286998
vector 65446  IntersectionExampleScenario.node[536].veinsmobility  posx  ETV
vector 65447  IntersectionExampleScenario.node[536].veinsmobility  posy  ETV
vector 65448  IntersectionExampleScenario.node[536].veinsmobility  speed  ETV
vector 65449  IntersectionExampleScenario.node[536].veinsmobility  acceleration  ETV
vector 65450  IntersectionExampleScenario.node[536].veinsmobility  co2emission  ETV
65380	16360936 5308 128672 131665 1712.75 1749.25 147 0.973 12.553400930962 502.44807179157 2858.8463041641
65379	16366244 5015 128672 131665 1712.75 1749.25 147 -3.5174598693848 2.5 42.754949569702 223.41299419708
65378	16371259 5243 128649 131665 1712.5 1749.25 148 5.6500000953674 16.89999961853 2225.3220424652 34352.18672184
65377	16376502 5514 128626 131665 1712.25 1749.25 149 483.14999389648 483.14999389648 71989.349090576 34781653.573724
65376	16382016 5484 128626 131665 1712.25 1749.25 149 184.17810058594 735.1251373291 66779.175460815 33909334.189259
vector 65453  IntersectionExampleScenario.node[537].veinsmobility  posx  ETV
vector 65454  IntersectionExampleScenario.node[537].veinsmobility  posy  ETV
vector 65455  IntersectionExampleScenario.node[537].veinsmobility  speed  ETV
vector 65456  IntersectionExampleScenario.node[537].veinsmobility  acceleration  ETV
vector 65457  IntersectionExampleScenario.node[537].veinsmobility  co2emission  ETV
65359	16387906 6905 128242 132303 1707.75 1757.25 199 0.973 11.00486315618 538.71781502511 2531.1922394494
65358	16394811 6343 128242 132303 1707.75 1757.25 199 -7.815390586853 4 34.267293930054 450.84469127285
65357	16401154 6774 128221 132303 1707.5 1757.25 200 0 14.75 2200.1345348358 29347.28972525
65356	16407928 7412 128200 132303 1707.25 1757.25 201 184.17810058594 486.85000610352 82529.101226807 35872686.153487
65355	16415340 7434 128200 132303 1707.25 1757.25 201 236.70440673828 486.85000610352 88874.841003418 40395674.438409
65366	16422774 7018 128309 132319 1708.5 1757.5 197 0.973 11.54047740176 570.41512282749 2750.8893569127
65365	16429792 6591 128309 132319 1708.5 1757.5 197 -4.5 2.5000009536743 37.32285118103 457.2272582663
65364	16436383 7152 128286 132319 1708.25 1757.5 198 0 15.5 2306.4330849918 31926.707893763
65363	16443535 7328 128263 132319 1708 1757.5 199 161.1796875 733.01811218262 87893.013717651 43569493.965931
65362	16450863 7362 128263 132319 1708 1757.5 199 486.85000610352 486.85000610352 96883.1512146 47167562.760155
vector 65460  IntersectionExampleScenario.node[538].veinsmobility  posx  ETV
vector 65461  IntersectionExampleScenario.node[538].veinsmobility  posy  ETV
65373	16458381 6745 128479 132394 1710.5 1758.75 194 0.973 12.118487782024 609.7918752443 3230.6547898383
65372	16465126 6614 128479 132394 1710.5 1758.75 194 -4.5 2.5 42.347280502319 440.18219782961
65371	16471740 7007 128458 132394 1710.25 1758.75 195 0 16.301872253418 2343.4208540022 33613.263726158
65370	16478747 7227 128437 132394 1710 1758.75 196 154.57891845703 735.02145385742 85726.87272644 42250417.740952
65369	16485974 7252 128437 132394 1710 1758.75 196 486.85000610352 486.85000610352 95422.601196289 46456493.974827
vector 65462  IntersectionExampleScenario.node[538].veinsmobility  speed  ETV
vector 65463  IntersectionExampleScenario.node[538].veinsmobility  acceleration  ETV
vector 65464  IntersectionExampleScenario.node[538].veinsmobility  co2emission  ETV
vector 65467  IntersectionExampleScenario.node[539].veinsmobility  posx  ETV
vector 65468  IntersectionExampleScenario.node[539].veinsmobility  posy  ETV
vector 65469  IntersectionExampleScenario.node[539].veinsmobility  speed  ETV
vector 65470  IntersectionExampleScenario.node[539].veinsmobility  acceleration  ETV
vector 65471  IntersectionExampleScenario.node[539].veinsmobility  co2emission  ETV
65394	16493882 5508 129550 132557 1723.25 1761.5 154 0.973 12.099024792222 503.06032169341 2900.0431997035
65393	16499390 5231 129550 132557 1723.25 1761.5 154 -3.2763366699219 2.5 40.038900375366 253.89157132808
65392	16504621 5436 129531 132557 1723 1761.5 155 5.6500000953674 16.27499961853 2209.5417699814 32542.58226838
65391	16510057 5751 129512 132557 1722.75 1761.5 156 483.11978149414 785.82187652588 89236.883644104 52795406.812344
65390	16515808 5761 129512 132557 1722.75 1761.5 156 483.14999389648 733.59259033203 83589.823303223 45727610.559691
vector 65474  IntersectionExampleScenario.node[540].veinsmobility  posx  ETV
vector 65475  IntersectionExampleScenario.node[540].veinsmobility  posy  ETV
vector 65476  IntersectionExampleScenario.node[540].veinsmobility  speed  ETV
vector 65481  IntersectionExampleScenario.node[541].veinsmobility  posx  ETV
vector 65482  IntersectionExampleScenario.node[541].veinsmobility  posy  ETV
vector 65477  IntersectionExampleScenario.node[540].veinsmobility  acceleration  ETV
vector 65478  IntersectionExampleScenario.node[540].veinsmobility  co2emission  ETV
vector 65483  IntersectionExampleScenario.node[541].veinsmobility  speed  ETV
vector 65484  IntersectionExampleScenario.node[541].veinsmobility  acceleration  ETV
vector 65485  IntersectionExampleScenario.node[541].veinsmobility  co2emission  ETV
65387	16522381 7313 129202 133241 1718.75 1772.5 216 0.973 11.36141391502 572.39006206791 2783.3249257201
65386	16529694 6753 129202 133241 1718.75 1772.5 216 -8.2099418640137 4 36.813589096069 481.06962067089
65385	16536447 7056 129181 133241 1718.5 1772.5 217 0 15.25 2172.3059687614 29932.842901098
65384	16543503 8002 129160 133241 1718.25 1772.5 218 486.85000610352 732.10182189941 114443.66186523 61118570.915823
65383	16551505 8060 129160 133241 1718.25 1772.5 218 486.63604736328 785.82187652588 120838.47519684 68964972.008779
65401	16559565 6432 129753 133263 1726 1773 189 0.973 11.990504229548 556.5787551479 2952.9518919793
65400	16565997 6693 129753 133263 1726 1773 189 -2.5559463500977 2.5000019073486 39.869146347046 318.65280892899
65399	16572690 6846 129736 133263 1725.75 1773 190 1.2729779481888 16.125 2219.1721127033 30619.761323451
65398	16579536 7066 129719 133263 1725.5 1773 191 486.85000610352 486.85000610352 92988.351165771 45271379.332612
65397	16586602 7049 129719 133263 1725.5 1773 191 235.97772216797 785.82187652588 99561.483985901 55999400.419449
65422	16593651 5909 130219 133296 1732.75 1773.75 165 0.973 11.648172402475 548.91535046855 2940.3492339927
65421	16599560 5792 130219 133296 1732.75 1773.75 165 -4.5 2.5 39.769315719604 359.72312405362
65420	16605352 6119 130198 133296 1732.5 1773.75 166 4.9422206878662 15.64999961853 2201.0460071564 31149.034389193
65419	16611471 6174 130177 133296 1732.25 1773.75 167 483.14999389648 731.72175598145 89049.799423218 48442120.683265
65418	16617645 6149 130177 133296 1732.25 1773.75 167 184.17810058594 486.85000610352 67239.021270752 28889965.033897
65443	16623794 5615 130609 133373 1737 1775.5 155 0.97223939240464 11.648172402475 477.09916551937 2543.2321972782
65442	16629409 5402 130609 133373 1737 1775.5 155 -3.7137222290039 2.5 38.680875778198 202.01689094174
65441	16634811 5542 130584 133373 1736.75 1775.5 156 5.6500000953674 15.64999961853 2242.2113170624 32884.755764553
65440	16640353 5809 130559 133373 1736.5 1775.5 157 483.14999389648 483.14999389648 75854.549041748 36649124.906541
65439	16646162 5788 130559 133373 1736.5 1775.5 157 179.81719970703 735.17512512207 70222.274276733 35670471.301311
65408	16651950 6657 129918 133373 1728.5 1775.5 189 0.973 11.648172402475 566.49106704118 2952.29988416
65407	16658607 6492 129918 133373 1728.5 1775.5 189 -4.5 2.5000019073486 39.359884262085 348.55007571098
65406	16665099 6822 129901 133373 1728.25 1775.5 190 3.906289100647 15.64999961853 2280.995153904 30850.13889221
65405	16671921 7066 129884 133373 1728 1775.5 191 486.85000610352 486.85000610352 92988.351165771 45271379.332612
65404	16678987 7045 129884 133373 1728 1775.5 191 236.20513916016 801.41563415527 101363.14981079 58261097.501139
65429	16686032 6259 130307 133527 1733.75 1779 182 0.973 11.36141391502 522.90145432675 2768.5857183026
65428	16692291 6356 130307 133527 1733.75 1779 182 -2.9869689941406 2.5 36.98334312439 274.7001295021
65427	16698647 6449 130284 133527 1733.5 1779 183 5.4362053871155 15.25 2205.5246744156 28669.011219089
65426	16705096 6801 130261 133527 1733.25 1779 184 486.85000610352 733.78495788574 97988.03956604 53178804.334057
65425	16711897 6791 130261 133527 1733.25 1779 184 486.80264282227 790.2133026123 105033.39202881 61815268.064935
65450	16718688 5538 131316 133703 1744.75 1783 154 0.973 11.648172402475 500.12674640736 2749.3366956305
65449	16724226 5279 131316 133703 1744.75 1783 154 -4.1274833679199 2.5 39.699392318726 255.09488242062
65448	16729505 5443 131295 133703 1744.5 1783 155 5.6500000953674 15.853715896606 2201.5771894455 32271.343188897
65447	16734948 5767 131274 133703 1744.25 1783 156 483.14999389648 732.07032775879 83536.647857666 45659002.268327
65446	16740715 5734 131274 133703 1744.25 1783 156 184.17810058594 487.04754638672 62009.608123779 26401314.777816
vector 65488  IntersectionExampleScenario.node[542].veinsmobility  posx  ETV
vector 65489  IntersectionExampleScenario.node[542].veinsmobility  posy  ETV
vector 65490  IntersectionExampleScenario.node[542].veinsmobility  speed  ETV
vector 65491  IntersectionExampleScenario.node[542].veinsmobility  acceleration  ETV
vector 65492  IntersectionExampleScenario.node[542].veinsmobility  co2emission  ETV
65436	16746855 7176 130398 133897 1734.75 1787.25 211 0.97223939240464 11.648172402475 586.25999210266 2981.048371194
65435	16754031 6545 130398 133897 1734.75 1787.25 211 -8.1580600738525 4 38.680875778198 504.05280023272
65434	16760576 6954 130375 133897 1734.5 1787.25 212 0 15.64999961853 2216.2127351761 31640.94901648
65433	16767530 7850 130352 133897 1734.25 1787.25 213 184.17810058594 734.53523254395 96920.956695557 48274244.530217
65432	16775380 7882 130352 133897 1734.25 1787.25 213 486.85000610352 486.85000610352 103699.05130005 50485883.758357
65415	16783262 7450 130177 133897 1732.25 1787.25 221 0.973 11.648172402475 593.65233154399 2960.3646014361
65414	16790712 6710 130177 133897 1732.25 1787.25 221 -37.120613098145 4 38.171613693237 1707.5095345799
65413	16797422 7083 130158 133897 1732 1787.25 222 0 15.64999961853 2196.1331224442 31417.906498257
65412	16804505 8241 130139 133897 1731.75 1787.25 223 483.14999389648 785.82187652588 122855.18318939 69705248.064389
65411	16812746 8247 130139 133897 1731.75 1787.25 223 483.14999389648 732.16635131836 116103.39091492 61522322.23629
vector 65495  IntersectionExampleScenario.node[543].veinsmobility  posx  ETV
vector 65496  IntersectionExampleScenario.node[543].veinsmobility  posy  ETV
vector 65497  IntersectionExampleScenario.node[543].veinsmobility  speed  ETV
vector 65498  IntersectionExampleScenario.node[543].veinsmobility  acceleration  ETV
vector 65499  IntersectionExampleScenario.node[543].veinsmobility  co2emission  ETV
vector 65502  IntersectionExampleScenario.node[544].veinsmobility  posx  ETV
vector 65503  IntersectionExampleScenario.node[544].veinsmobility  posy  ETV
vector 65504  IntersectionExampleScenario.node[544].veinsmobility  speed  ETV
vector 65505  IntersectionExampleScenario.node[544].veinsmobility  acceleration  ETV
vector 65506  IntersectionExampleScenario.node[544].veinsmobility  co2emission  ETV
vector 65509  IntersectionExampleScenario.node[545].veinsmobility  posx  ETV
vector 65510  IntersectionExampleScenario.node[545].veinsmobility  posy  ETV
vector 65511  IntersectionExampleScenario.node[545].veinsmobility  speed  ETV
vector 65516  IntersectionExampleScenario.node[546].veinsmobility  posx  ETV
vector 65517  IntersectionExampleScenario.node[546].veinsmobility  posy  ETV
vector 65512  IntersectionExampleScenario.node[545].veinsmobility  acceleration  ETV
vector 65513  IntersectionExampleScenario.node[545].veinsmobility  co2emission  ETV
vector 65523  IntersectionExampleScenario.node[547].veinsmobility  posx  ETV
vector 65524  IntersectionExampleScenario.node[547].veinsmobility  posy  ETV
vector 65518  IntersectionExampleScenario.node[546].veinsmobility  speed  ETV
vector 65519  IntersectionExampleScenario.node[546].veinsmobility  acceleration  ETV
vector 65520  IntersectionExampleScenario.node[546].veinsmobility  co2emission  ETV
vector 65525  IntersectionExampleScenario.node[547].veinsmobility  speed  ETV
vector 65526  IntersectionExampleScenario.node[547].veinsmobility  acceleration  ETV
vector 65527  IntersectionExampleScenario.node[547].veinsmobility  co2emission  ETV
65457	16823023 6448 131897 134335 1752.25 1800 192 0.973 12.26218747632 571.78945241288 3274.1233141052
65456	16829471 6195 131897 134335 1752.25 1800 192 -6.9978852272034 4 41.227201461792 494.304307493
65455	16835666 6228 131876 134335 1752 1800 193 0 16.5 2010.5920602083 29122.708822933
65454	16841894 7099 131855 134335 1751.75 1800 194 278.86059570312 483.14999389648 88292.306793213 40765784.724338
65453	16848993 7151 131855 134335 1751.75 1800 194 184.17810058594 483.36395263672 79689.583374023 34586068.034009
65464	16856144 5594 132428 134335 1759.25 1800 164 0.973 11.54047740176 487.56537540535 2647.8232787848
65463	16861738 5824 132428 134335 1759.25 1800 164 -2.163990020752 2.5 37.322881698608 281.27179942396
65462	16867562 5895 132411 134335 1759 1800 165 2.7851550579071 15.5 1934.5646693707 25413.597615807
65461	16873457 6141 132394 134335 1758.75 1800 166 483.14999389648 483.14999389648 80202.898986816 38750030.155961
65460	16879598 6107 132394 134335 1758.75 1800 166 184.17810058594 662.72314453125 69629.390167236 32069982.887478
65471	16885705 5499 132557 134335 1761.5 1800 155 0.973 11.648172402475 502.95587575218 2818.3013935197
65470	16891204 5536 132557 134335 1761.5 1800 155 -7.03919506073 4 38.341459274292 483.85049686296
65469	16896740 5711 132542 134335 1761.25 1800 156 0 15.64999961853 1878.7603763826 26105.821707928
65468	16902451 5803 132527 134335 1761 1800 157 317.32299804688 486.85000610352 72486.273834229 33809473.573088
65467	16908254 5802 132527 134335 1761 1800 157 483.14999389648 785.82187652588 90286.666862488 53628445.869952
65478	16914056 5407 132605 134335 1762.25 1800 152 0.973 11.990504229548 516.00376792515 3011.0709242007
65477	16919463 5176 132605 134335 1762.25 1800 152 -4.5 2.5 39.69948387146 428.70090169512
65476	16924639 5503 132589 134335 1762 1800 153 2.5370626449585 16.125 2014.1722536087 28626.776527924
65475	16930142 5697 132572 134335 1761.75 1800 154 486.85000610352 486.85000610352 74974.900939941 36501530.980221
65474	16935839 5682 132572 134335 1761.75 1800 154 310.36968994141 808.82032012939 86830.091346741 52133499.528505
65485	16941521 5239 132639 134335 1762.75 1800 150 0.973 11.450879080643 501.88343697954 2932.1520824272
65484	16946760 5195 132639 134335 1762.75 1800 150 -4.5 2.5 38.341779708862 383.61833021179
65483	16951955 5295 132622 134335 1762.5 1800 151 4.4455399513245 15.375 1796.6101956367 23484.039921813
65482	16957250 5622 132605 134335 1762.25 1800 152 483.14999389648 621.1382598877 76084.663421631 38279621.385194
65481	16962872 5597 132605 134335 1762.25 1800 152 174.53436279297 486.88034057617 57745.250457764 23598351.172709
65492	16968469 2057 133850 134335 1786.25 1800 56 0.973 11.648172402475 215.41551365693 1357.0836680815
65491	16970526 2047 133850 134335 1786.25 1800 56 -0.41465759277344 2.5 38.341375350952 100.3930018791
65490	16972573 2093 133837 134335 1786 1800 57 5.6500000953674 15.64999961853 791.70756626129 11410.306490221
65489	16974666 2145 133824 134335 1785.75 1800 58 483.14999389648 483.14999389648 28022.699645996 13539167.162926
65488	16976811 2120 133824 134335 1785.75 1800 58 184.17810058594 376.98986816406 15710.237854004 4466223.7671653
65499	16978931 1500 133997 134335 1790 1800 41 0.973 11.648172402475 182.84536699522 1286.3627029547
65498	16980431 1420 133997 134335 1790 1800 41 -0.41465759277344 2.5 38.342607498169 100.393001657
65497	16981851 1540 133990 134335 1789.75 1800 42 5.6500000953674 15.64999961853 563.17653942108 7928.5444749105
65496	16983391 1590 133983 134335 1789.5 1800 43 483.14999389648 483.14999389648 20775.449737549 10037658.413893
65495	16984981 1576 133983 134335 1789.5 1800 43 176.21716308594 311.9091796875 10113.335998535 2457652.8783967
65506	16986557 1058 134070 134335 1793 1800 29 0.973 11.648172402475 157.41920788278 1231.9242118535
65505	16987615 925 134070 134335 1793 1800 29 -0.37222290039062 2.5 38.546487808228 100.31649507526
65504	16988540 1099 134063 134335 1792.75 1800 30 5.6500000953674 15.64999961853 380.7512512207 5155.3818174804
65503	16989639 1129 134056 134335 1792.5 1800 31 184.17810058594 274.23425292969 6868.9708862305 1547278.5683734
65502	16990768 1146 134056 134335 1792.5 1800 31 486.85000610352 486.85000610352 15092.350189209 7347710.7817328
65513	16991914 432 134193 134335 1797.25 1800 12 0.973 7.0876400955225 49.563484122335 256.27847460896
65512	16992346 357 134193 134335 1797.25 1800 12 -1.7813987731934 2.5000019073486 15.360029220581 41.042214620353
65511	16992703 479 134184 134335 1797 1800 13 5.6500000953674 9.4900074005127 96.603017807007 744.17509335147
65510	16993182 516 134175 134335 1796.75 1800 14 179.81719970703 201.07604980469 2642.3734130859 499371.66049181
65509	16993698 517 134175 134335 1796.75 1800 14 486.85000610352 486.85000610352 6815.9000854492 3318320.9982019
65520	16994215 367 134217 134335 1797.75 1800 10 5.2162187258585 9.0094788378334 71.010429736213 518.89513016095
65519	16994582 261 134217 134335 1797.75 1800 10 2.4999980926514 2.5 24.999998092651 62.49999046326
65518	16994843 402 134204 134335 1797.5 1800 11 5.6500000953674 11.89999961853 96.524997711182 889.97557648659
65517	16995245 444 134193 134335 1797.25 1800 12 483.14999389648 483.14999389648 5797.7999267578 2801206.9992261
65516	16995689 432 134193 134335 1797.25 1800 12 184.17810058594 204.55310058594 2309.3092651367 444945.50582055
65527	16996121 329 134230 134335 1798 1800 9 5.2162187258585 8.5795037135332 62.00095089838 437.72442123158
65526	16996450 235 134230 134335 1798 1800 9 2.4999980926514 2.5 22.499998092651 56.24999046326
65525	16996685 366 134217 134335 1797.75 1800 10 5.6500000953674 11.27499961853 84.624998092651 748.36558556557
65524	16997051 400 134204 134335 1797.5 1800 11 208.99920654297 226.63360595703 2377.788269043 514365.22066103
65523	16997451 406 134204 134335 1797.5 1800 11 486.85000610352 486.85000610352 5355.3500671387 2607252.2128729
61690	16997857 630 0 134334 0 1800 31 0 22 419 6177
61691	16998487 639 0 134334 0 1800 31 0 128 2041 180285
