version 2
run nodebug-8-20200605-20:05:57-14344
attr configname nodebug
attr datetime 20200605-20:05:57
attr experiment nodebug
attr inifile omnetpp.ini
attr iterationvars ""
attr iterationvars2 $repetition=8
attr measurement ""
attr network "\"org.car2x.veins.modules.application.ExtTraCIScenarioManagerLaunchd.IntersectionExampleScenario\""
attr processid 14344
attr repetition 8
attr replication #8
attr resultdir results
attr runnumber 8
attr seedset 8
param **.coreDebug false
param **.debug false
param *.**.nic.mac1609_4.bitrate 18Mbps
param *.**.nic.mac1609_4.txPower 20mW
param *.**.nic.mac1609_4.useServiceChannel false
param *.**.nic.phy80211p.analogueModels "xmldoc(\"config.xml\")"
param *.**.nic.phy80211p.decider "xmldoc(\"config.xml\")"
param *.**.nic.phy80211p.sensitivity -89dBm
param *.**.nic.phy80211p.thermalNoise -110dBm
param *.**.nic.phy80211p.usePropagationDelay true
param *.**.nic.phy80211p.useThermalNoise true
param *.annotations.draw false
param *.connectionManager.alpha 2.0
param *.connectionManager.carrierFrequency "5.890e9 Hz"
param *.connectionManager.pMax 20mW
param *.connectionManager.sat -89dBm
param *.connectionManager.sendDirect true
param *.manager.autoShutdown true
param *.manager.host "\"localhost\""
param *.manager.launchConfig "xmldoc(\"paramics.launchd.xml\")"
param *.manager.margin 25
param *.manager.moduleDisplayString "\"\""
param *.manager.moduleName "\"node\""
param *.manager.moduleType "\"org.car2x.veins.nodes.Car\""
param *.manager.port 9999
param *.manager.updateInterval 250ms
param *.node[*0].veinsmobility.accidentCount 0
param *.node[*0].veinsmobility.accidentDuration 30s
param *.node[*0].veinsmobility.accidentStart 75s
param *.node[*].appl.LiderSelectZoneRadio 55.0
param *.node[*].appl.ShareDataZoneRadio 110.0
param *.node[*].appl.TiempoSemaforo 30.0
param *.node[*].appl.beaconInterval 1s
param *.node[*].appl.beaconPriority 3
param *.node[*].appl.dataOnSch false
param *.node[*].appl.dataPriority 2
param *.node[*].appl.debug false
param *.node[*].appl.headerLength "256 bit"
param *.node[*].appl.maxOffset 0.005s
param *.node[*].appl.sendBeacons false
param *.node[*].appl.sendData true
param *.node[*].applType "\"Dummy\""
param *.node[*].mobilityType "\"TraCIMobility\""
param *.node[*].mobilityType.debug true
param *.node[*].veinsmobility.x 0
param *.node[*].veinsmobility.y 0
param *.node[*].veinsmobility.z 1.895
param *.node[*].veinsmobilityType "\"org.car2x.veins.modules.mobility.traci.TraCIMobility\""
param *.node[*].veinsmobilityType.debug true
param *.playgroundSizeX 8500m
param *.playgroundSizeY 8500m
param *.playgroundSizeZ 50m
param *.world.use2D false
param *.world.useTorus false

scalar IntersectionExampleScenario.node[2].appl 	VehicleRemoved 	0
scalar IntersectionExampleScenario.node[2].appl 	ArrivedAtDest 	1
scalar IntersectionExampleScenario.node[2].appl 	IntersectionEnterTime 	3.25
scalar IntersectionExampleScenario.node[2].appl 	IntersectionExitTime 	26.317923251976
scalar IntersectionExampleScenario.node[2].appl 	NumberOfCollisions 	0
scalar IntersectionExampleScenario.node[2].nic.phy80211p 	busyTime 	0
scalar IntersectionExampleScenario.node[2].nic.mac1609_4 	ReceivedUnicastPackets 	0
scalar IntersectionExampleScenario.node[2].nic.mac1609_4 	ReceivedBroadcasts 	0
scalar IntersectionExampleScenario.node[2].nic.mac1609_4 	SentPackets 	0
scalar IntersectionExampleScenario.node[2].nic.mac1609_4 	SNIRLostPackets 	0
scalar IntersectionExampleScenario.node[2].nic.mac1609_4 	RXTXLostPackets 	0
scalar IntersectionExampleScenario.node[2].nic.mac1609_4 	TotalLostPackets 	0
scalar IntersectionExampleScenario.node[2].nic.mac1609_4 	DroppedPacketsInMac 	0
scalar IntersectionExampleScenario.node[2].nic.mac1609_4 	TooLittleTime 	0
scalar IntersectionExampleScenario.node[2].nic.mac1609_4 	TimesIntoBackoff 	0
scalar IntersectionExampleScenario.node[2].nic.mac1609_4 	SlotsBackoff 	0
scalar IntersectionExampleScenario.node[2].nic.mac1609_4 	NumInternalContention 	0
scalar IntersectionExampleScenario.node[2].nic.mac1609_4 	totalBusyTime 	0
scalar IntersectionExampleScenario.node[2].veinsmobility 	startTime 	3.25
scalar IntersectionExampleScenario.node[2].veinsmobility 	totalTime 	39.25
scalar IntersectionExampleScenario.node[2].veinsmobility 	stopTime 	42.75
scalar IntersectionExampleScenario.node[2].veinsmobility 	minSpeed 	5.6500000953674
scalar IntersectionExampleScenario.node[2].veinsmobility 	maxSpeed 	15.64999961853
scalar IntersectionExampleScenario.node[2].veinsmobility 	totalDistance 	549.99318491532
scalar IntersectionExampleScenario.node[2].veinsmobility 	totalCO2Emission 	123.03689066274
scalar IntersectionExampleScenario.node[0].appl 	VehicleRemoved 	0
scalar IntersectionExampleScenario.node[0].appl 	ArrivedAtDest 	1
scalar IntersectionExampleScenario.node[0].appl 	IntersectionEnterTime 	1.75
scalar IntersectionExampleScenario.node[0].appl 	IntersectionExitTime 	34.566356960917
scalar IntersectionExampleScenario.node[0].appl 	NumberOfCollisions 	0
scalar IntersectionExampleScenario.node[0].nic.phy80211p 	busyTime 	0
scalar IntersectionExampleScenario.node[0].nic.mac1609_4 	ReceivedUnicastPackets 	0
scalar IntersectionExampleScenario.node[0].nic.mac1609_4 	ReceivedBroadcasts 	0
scalar IntersectionExampleScenario.node[0].nic.mac1609_4 	SentPackets 	0
scalar IntersectionExampleScenario.node[0].nic.mac1609_4 	SNIRLostPackets 	0
scalar IntersectionExampleScenario.node[0].nic.mac1609_4 	RXTXLostPackets 	0
scalar IntersectionExampleScenario.node[0].nic.mac1609_4 	TotalLostPackets 	0
scalar IntersectionExampleScenario.node[0].nic.mac1609_4 	DroppedPacketsInMac 	0
scalar IntersectionExampleScenario.node[0].nic.mac1609_4 	TooLittleTime 	0
scalar IntersectionExampleScenario.node[0].nic.mac1609_4 	TimesIntoBackoff 	0
scalar IntersectionExampleScenario.node[0].nic.mac1609_4 	SlotsBackoff 	0
scalar IntersectionExampleScenario.node[0].nic.mac1609_4 	NumInternalContention 	0
scalar IntersectionExampleScenario.node[0].nic.mac1609_4 	totalBusyTime 	0
scalar IntersectionExampleScenario.node[0].veinsmobility 	startTime 	1.75
scalar IntersectionExampleScenario.node[0].veinsmobility 	totalTime 	48.75
scalar IntersectionExampleScenario.node[0].veinsmobility 	stopTime 	50.75
scalar IntersectionExampleScenario.node[0].veinsmobility 	minSpeed 	0
scalar IntersectionExampleScenario.node[0].veinsmobility 	maxSpeed 	16.5
scalar IntersectionExampleScenario.node[0].veinsmobility 	totalDistance 	543.0530767575
scalar IntersectionExampleScenario.node[0].veinsmobility 	totalCO2Emission 	147.09921655143
scalar IntersectionExampleScenario.node[1].appl 	VehicleRemoved 	0
scalar IntersectionExampleScenario.node[1].appl 	ArrivedAtDest 	1
scalar IntersectionExampleScenario.node[1].appl 	IntersectionEnterTime 	2.75
scalar IntersectionExampleScenario.node[1].appl 	IntersectionExitTime 	36.300293920125
scalar IntersectionExampleScenario.node[1].appl 	NumberOfCollisions 	0
scalar IntersectionExampleScenario.node[1].nic.phy80211p 	busyTime 	0
scalar IntersectionExampleScenario.node[1].nic.mac1609_4 	ReceivedUnicastPackets 	0
scalar IntersectionExampleScenario.node[1].nic.mac1609_4 	ReceivedBroadcasts 	0
scalar IntersectionExampleScenario.node[1].nic.mac1609_4 	SentPackets 	0
scalar IntersectionExampleScenario.node[1].nic.mac1609_4 	SNIRLostPackets 	0
scalar IntersectionExampleScenario.node[1].nic.mac1609_4 	RXTXLostPackets 	0
scalar IntersectionExampleScenario.node[1].nic.mac1609_4 	TotalLostPackets 	0
scalar IntersectionExampleScenario.node[1].nic.mac1609_4 	DroppedPacketsInMac 	0
scalar IntersectionExampleScenario.node[1].nic.mac1609_4 	TooLittleTime 	0
scalar IntersectionExampleScenario.node[1].nic.mac1609_4 	TimesIntoBackoff 	0
scalar IntersectionExampleScenario.node[1].nic.mac1609_4 	SlotsBackoff 	0
scalar IntersectionExampleScenario.node[1].nic.mac1609_4 	NumInternalContention 	0
scalar IntersectionExampleScenario.node[1].nic.mac1609_4 	totalBusyTime 	0
scalar IntersectionExampleScenario.node[1].veinsmobility 	startTime 	2.75
scalar IntersectionExampleScenario.node[1].veinsmobility 	totalTime 	49.25
scalar IntersectionExampleScenario.node[1].veinsmobility 	stopTime 	52.25
scalar IntersectionExampleScenario.node[1].veinsmobility 	minSpeed 	0
scalar IntersectionExampleScenario.node[1].veinsmobility 	maxSpeed 	16.27499961853
scalar IntersectionExampleScenario.node[1].veinsmobility 	totalDistance 	572.22277460127
scalar IntersectionExampleScenario.node[1].veinsmobility 	totalCO2Emission 	148.75973002375
scalar IntersectionExampleScenario.node[3].appl 	VehicleRemoved 	0
scalar IntersectionExampleScenario.node[3].appl 	ArrivedAtDest 	1
scalar IntersectionExampleScenario.node[3].appl 	IntersectionEnterTime 	7.25
scalar IntersectionExampleScenario.node[3].appl 	IntersectionExitTime 	36.803261471679
scalar IntersectionExampleScenario.node[3].appl 	NumberOfCollisions 	0
scalar IntersectionExampleScenario.node[3].nic.phy80211p 	busyTime 	0
scalar IntersectionExampleScenario.node[3].nic.mac1609_4 	ReceivedUnicastPackets 	0
scalar IntersectionExampleScenario.node[3].nic.mac1609_4 	ReceivedBroadcasts 	0
scalar IntersectionExampleScenario.node[3].nic.mac1609_4 	SentPackets 	0
scalar IntersectionExampleScenario.node[3].nic.mac1609_4 	SNIRLostPackets 	0
scalar IntersectionExampleScenario.node[3].nic.mac1609_4 	RXTXLostPackets 	0
scalar IntersectionExampleScenario.node[3].nic.mac1609_4 	TotalLostPackets 	0
scalar IntersectionExampleScenario.node[3].nic.mac1609_4 	DroppedPacketsInMac 	0
scalar IntersectionExampleScenario.node[3].nic.mac1609_4 	TooLittleTime 	0
scalar IntersectionExampleScenario.node[3].nic.mac1609_4 	TimesIntoBackoff 	0
scalar IntersectionExampleScenario.node[3].nic.mac1609_4 	SlotsBackoff 	0
scalar IntersectionExampleScenario.node[3].nic.mac1609_4 	NumInternalContention 	0
scalar IntersectionExampleScenario.node[3].nic.mac1609_4 	totalBusyTime 	0
scalar IntersectionExampleScenario.node[3].veinsmobility 	startTime 	7.25
scalar IntersectionExampleScenario.node[3].veinsmobility 	totalTime 	46.25
scalar IntersectionExampleScenario.node[3].veinsmobility 	stopTime 	53.75
scalar IntersectionExampleScenario.node[3].veinsmobility 	minSpeed 	0
scalar IntersectionExampleScenario.node[3].veinsmobility 	maxSpeed 	15.094267845154
scalar IntersectionExampleScenario.node[3].veinsmobility 	totalDistance 	550.67962868756
scalar IntersectionExampleScenario.node[3].veinsmobility 	totalCO2Emission 	136.46222324107
scalar IntersectionExampleScenario.node[4].appl 	VehicleRemoved 	0
scalar IntersectionExampleScenario.node[4].appl 	ArrivedAtDest 	1
scalar IntersectionExampleScenario.node[4].appl 	IntersectionEnterTime 	10.25
scalar IntersectionExampleScenario.node[4].appl 	IntersectionExitTime 	37.777350132645
scalar IntersectionExampleScenario.node[4].appl 	NumberOfCollisions 	0
scalar IntersectionExampleScenario.node[4].nic.phy80211p 	busyTime 	0
scalar IntersectionExampleScenario.node[4].nic.mac1609_4 	ReceivedUnicastPackets 	0
scalar IntersectionExampleScenario.node[4].nic.mac1609_4 	ReceivedBroadcasts 	0
scalar IntersectionExampleScenario.node[4].nic.mac1609_4 	SentPackets 	0
scalar IntersectionExampleScenario.node[4].nic.mac1609_4 	SNIRLostPackets 	0
scalar IntersectionExampleScenario.node[4].nic.mac1609_4 	RXTXLostPackets 	0
scalar IntersectionExampleScenario.node[4].nic.mac1609_4 	TotalLostPackets 	0
scalar IntersectionExampleScenario.node[4].nic.mac1609_4 	DroppedPacketsInMac 	0
scalar IntersectionExampleScenario.node[4].nic.mac1609_4 	TooLittleTime 	0
scalar IntersectionExampleScenario.node[4].nic.mac1609_4 	TimesIntoBackoff 	0
scalar IntersectionExampleScenario.node[4].nic.mac1609_4 	SlotsBackoff 	0
scalar IntersectionExampleScenario.node[4].nic.mac1609_4 	NumInternalContention 	0
scalar IntersectionExampleScenario.node[4].nic.mac1609_4 	totalBusyTime 	0
scalar IntersectionExampleScenario.node[4].veinsmobility 	startTime 	10.25
scalar IntersectionExampleScenario.node[4].veinsmobility 	totalTime 	44.5
scalar IntersectionExampleScenario.node[4].veinsmobility 	stopTime 	55
scalar IntersectionExampleScenario.node[4].veinsmobility 	minSpeed 	3.6539764404297
scalar IntersectionExampleScenario.node[4].veinsmobility 	maxSpeed 	15.159338951111
scalar IntersectionExampleScenario.node[4].veinsmobility 	totalDistance 	558.36771174215
scalar IntersectionExampleScenario.node[4].veinsmobility 	totalCO2Emission 	137.99651448175
scalar IntersectionExampleScenario.node[6].appl 	VehicleRemoved 	0
scalar IntersectionExampleScenario.node[6].appl 	ArrivedAtDest 	1
scalar IntersectionExampleScenario.node[6].appl 	IntersectionEnterTime 	16.5
scalar IntersectionExampleScenario.node[6].appl 	IntersectionExitTime 	40.862018125772
scalar IntersectionExampleScenario.node[6].appl 	NumberOfCollisions 	0
scalar IntersectionExampleScenario.node[6].nic.phy80211p 	busyTime 	0
scalar IntersectionExampleScenario.node[6].nic.mac1609_4 	ReceivedUnicastPackets 	0
scalar IntersectionExampleScenario.node[6].nic.mac1609_4 	ReceivedBroadcasts 	0
scalar IntersectionExampleScenario.node[6].nic.mac1609_4 	SentPackets 	0
scalar IntersectionExampleScenario.node[6].nic.mac1609_4 	SNIRLostPackets 	0
scalar IntersectionExampleScenario.node[6].nic.mac1609_4 	RXTXLostPackets 	0
scalar IntersectionExampleScenario.node[6].nic.mac1609_4 	TotalLostPackets 	0
scalar IntersectionExampleScenario.node[6].nic.mac1609_4 	DroppedPacketsInMac 	0
scalar IntersectionExampleScenario.node[6].nic.mac1609_4 	TooLittleTime 	0
scalar IntersectionExampleScenario.node[6].nic.mac1609_4 	TimesIntoBackoff 	0
scalar IntersectionExampleScenario.node[6].nic.mac1609_4 	SlotsBackoff 	0
scalar IntersectionExampleScenario.node[6].nic.mac1609_4 	NumInternalContention 	0
scalar IntersectionExampleScenario.node[6].nic.mac1609_4 	totalBusyTime 	0
scalar IntersectionExampleScenario.node[6].veinsmobility 	startTime 	16.5
scalar IntersectionExampleScenario.node[6].veinsmobility 	totalTime 	40.25
scalar IntersectionExampleScenario.node[6].veinsmobility 	stopTime 	57
scalar IntersectionExampleScenario.node[6].veinsmobility 	minSpeed 	5.6500000953674
scalar IntersectionExampleScenario.node[6].veinsmobility 	maxSpeed 	15.727382659912
scalar IntersectionExampleScenario.node[6].veinsmobility 	totalDistance 	551.71505538494
scalar IntersectionExampleScenario.node[6].veinsmobility 	totalCO2Emission 	138.24268810863
scalar IntersectionExampleScenario.node[5].appl 	VehicleRemoved 	0
scalar IntersectionExampleScenario.node[5].appl 	ArrivedAtDest 	1
scalar IntersectionExampleScenario.node[5].appl 	IntersectionEnterTime 	13.5
scalar IntersectionExampleScenario.node[5].appl 	IntersectionExitTime 	50.540266349388
scalar IntersectionExampleScenario.node[5].appl 	NumberOfCollisions 	0
scalar IntersectionExampleScenario.node[5].nic.phy80211p 	busyTime 	0
scalar IntersectionExampleScenario.node[5].nic.mac1609_4 	ReceivedUnicastPackets 	0
scalar IntersectionExampleScenario.node[5].nic.mac1609_4 	ReceivedBroadcasts 	0
scalar IntersectionExampleScenario.node[5].nic.mac1609_4 	SentPackets 	0
scalar IntersectionExampleScenario.node[5].nic.mac1609_4 	SNIRLostPackets 	0
scalar IntersectionExampleScenario.node[5].nic.mac1609_4 	RXTXLostPackets 	0
scalar IntersectionExampleScenario.node[5].nic.mac1609_4 	TotalLostPackets 	0
scalar IntersectionExampleScenario.node[5].nic.mac1609_4 	DroppedPacketsInMac 	0
scalar IntersectionExampleScenario.node[5].nic.mac1609_4 	TooLittleTime 	0
scalar IntersectionExampleScenario.node[5].nic.mac1609_4 	TimesIntoBackoff 	0
scalar IntersectionExampleScenario.node[5].nic.mac1609_4 	SlotsBackoff 	0
scalar IntersectionExampleScenario.node[5].nic.mac1609_4 	NumInternalContention 	0
scalar IntersectionExampleScenario.node[5].nic.mac1609_4 	totalBusyTime 	0
scalar IntersectionExampleScenario.node[5].veinsmobility 	startTime 	13.5
scalar IntersectionExampleScenario.node[5].veinsmobility 	totalTime 	53.75
scalar IntersectionExampleScenario.node[5].veinsmobility 	stopTime 	67.5
scalar IntersectionExampleScenario.node[5].veinsmobility 	minSpeed 	0
scalar IntersectionExampleScenario.node[5].veinsmobility 	maxSpeed 	15.64999961853
scalar IntersectionExampleScenario.node[5].veinsmobility 	totalDistance 	544.42742062957
scalar IntersectionExampleScenario.node[5].veinsmobility 	totalCO2Emission 	145.72124088446
scalar IntersectionExampleScenario.node[7].appl 	VehicleRemoved 	0
scalar IntersectionExampleScenario.node[7].appl 	ArrivedAtDest 	1
scalar IntersectionExampleScenario.node[7].appl 	IntersectionEnterTime 	26
scalar IntersectionExampleScenario.node[7].appl 	IntersectionExitTime 	53.04396059268
scalar IntersectionExampleScenario.node[7].appl 	NumberOfCollisions 	0
scalar IntersectionExampleScenario.node[7].nic.phy80211p 	busyTime 	0
scalar IntersectionExampleScenario.node[7].nic.mac1609_4 	ReceivedUnicastPackets 	0
scalar IntersectionExampleScenario.node[7].nic.mac1609_4 	ReceivedBroadcasts 	0
scalar IntersectionExampleScenario.node[7].nic.mac1609_4 	SentPackets 	0
scalar IntersectionExampleScenario.node[7].nic.mac1609_4 	SNIRLostPackets 	0
scalar IntersectionExampleScenario.node[7].nic.mac1609_4 	RXTXLostPackets 	0
scalar IntersectionExampleScenario.node[7].nic.mac1609_4 	TotalLostPackets 	0
scalar IntersectionExampleScenario.node[7].nic.mac1609_4 	DroppedPacketsInMac 	0
scalar IntersectionExampleScenario.node[7].nic.mac1609_4 	TooLittleTime 	0
scalar IntersectionExampleScenario.node[7].nic.mac1609_4 	TimesIntoBackoff 	0
scalar IntersectionExampleScenario.node[7].nic.mac1609_4 	SlotsBackoff 	0
scalar IntersectionExampleScenario.node[7].nic.mac1609_4 	NumInternalContention 	0
scalar IntersectionExampleScenario.node[7].nic.mac1609_4 	totalBusyTime 	0
scalar IntersectionExampleScenario.node[7].veinsmobility 	startTime 	26
scalar IntersectionExampleScenario.node[7].veinsmobility 	totalTime 	43
scalar IntersectionExampleScenario.node[7].veinsmobility 	stopTime 	69.25
scalar IntersectionExampleScenario.node[7].veinsmobility 	minSpeed 	4.8909192085266
scalar IntersectionExampleScenario.node[7].veinsmobility 	maxSpeed 	15.64999961853
scalar IntersectionExampleScenario.node[7].veinsmobility 	totalDistance 	552.6750793457
scalar IntersectionExampleScenario.node[7].veinsmobility 	totalCO2Emission 	133.36864565883
scalar IntersectionExampleScenario.node[9].appl 	VehicleRemoved 	0
scalar IntersectionExampleScenario.node[9].appl 	ArrivedAtDest 	1
scalar IntersectionExampleScenario.node[9].appl 	IntersectionEnterTime 	32.25
scalar IntersectionExampleScenario.node[9].appl 	IntersectionExitTime 	55.079779851105
scalar IntersectionExampleScenario.node[9].appl 	NumberOfCollisions 	0
scalar IntersectionExampleScenario.node[9].nic.phy80211p 	busyTime 	0
scalar IntersectionExampleScenario.node[9].nic.mac1609_4 	ReceivedUnicastPackets 	0
scalar IntersectionExampleScenario.node[9].nic.mac1609_4 	ReceivedBroadcasts 	0
scalar IntersectionExampleScenario.node[9].nic.mac1609_4 	SentPackets 	0
scalar IntersectionExampleScenario.node[9].nic.mac1609_4 	SNIRLostPackets 	0
scalar IntersectionExampleScenario.node[9].nic.mac1609_4 	RXTXLostPackets 	0
scalar IntersectionExampleScenario.node[9].nic.mac1609_4 	TotalLostPackets 	0
scalar IntersectionExampleScenario.node[9].nic.mac1609_4 	DroppedPacketsInMac 	0
scalar IntersectionExampleScenario.node[9].nic.mac1609_4 	TooLittleTime 	0
scalar IntersectionExampleScenario.node[9].nic.mac1609_4 	TimesIntoBackoff 	0
scalar IntersectionExampleScenario.node[9].nic.mac1609_4 	SlotsBackoff 	0
scalar IntersectionExampleScenario.node[9].nic.mac1609_4 	NumInternalContention 	0
scalar IntersectionExampleScenario.node[9].nic.mac1609_4 	totalBusyTime 	0
scalar IntersectionExampleScenario.node[9].veinsmobility 	startTime 	32.25
scalar IntersectionExampleScenario.node[9].veinsmobility 	totalTime 	38.75
scalar IntersectionExampleScenario.node[9].veinsmobility 	stopTime 	71.25
scalar IntersectionExampleScenario.node[9].veinsmobility 	minSpeed 	5.6500000953674
scalar IntersectionExampleScenario.node[9].veinsmobility 	maxSpeed 	16.27499961853
scalar IntersectionExampleScenario.node[9].veinsmobility 	totalDistance 	552.20214067747
scalar IntersectionExampleScenario.node[9].veinsmobility 	totalCO2Emission 	126.12445776206
scalar IntersectionExampleScenario.node[12].appl 	VehicleRemoved 	0
scalar IntersectionExampleScenario.node[12].appl 	ArrivedAtDest 	1
scalar IntersectionExampleScenario.node[12].appl 	IntersectionEnterTime 	36.5
scalar IntersectionExampleScenario.node[12].appl 	IntersectionExitTime 	59.80933923769
scalar IntersectionExampleScenario.node[12].appl 	NumberOfCollisions 	0
scalar IntersectionExampleScenario.node[12].nic.phy80211p 	busyTime 	0
scalar IntersectionExampleScenario.node[12].nic.mac1609_4 	ReceivedUnicastPackets 	0
scalar IntersectionExampleScenario.node[12].nic.mac1609_4 	ReceivedBroadcasts 	0
scalar IntersectionExampleScenario.node[12].nic.mac1609_4 	SentPackets 	0
scalar IntersectionExampleScenario.node[12].nic.mac1609_4 	SNIRLostPackets 	0
scalar IntersectionExampleScenario.node[12].nic.mac1609_4 	RXTXLostPackets 	0
scalar IntersectionExampleScenario.node[12].nic.mac1609_4 	TotalLostPackets 	0
scalar IntersectionExampleScenario.node[12].nic.mac1609_4 	DroppedPacketsInMac 	0
scalar IntersectionExampleScenario.node[12].nic.mac1609_4 	TooLittleTime 	0
scalar IntersectionExampleScenario.node[12].nic.mac1609_4 	TimesIntoBackoff 	0
scalar IntersectionExampleScenario.node[12].nic.mac1609_4 	SlotsBackoff 	0
scalar IntersectionExampleScenario.node[12].nic.mac1609_4 	NumInternalContention 	0
scalar IntersectionExampleScenario.node[12].nic.mac1609_4 	totalBusyTime 	0
scalar IntersectionExampleScenario.node[12].veinsmobility 	startTime 	36.5
scalar IntersectionExampleScenario.node[12].veinsmobility 	totalTime 	39.75
scalar IntersectionExampleScenario.node[12].veinsmobility 	stopTime 	76.5
scalar IntersectionExampleScenario.node[12].veinsmobility 	minSpeed 	5.6500000953674
scalar IntersectionExampleScenario.node[12].veinsmobility 	maxSpeed 	15.64999961853
scalar IntersectionExampleScenario.node[12].veinsmobility 	totalDistance 	552.5395783007
scalar IntersectionExampleScenario.node[12].veinsmobility 	totalCO2Emission 	122.64384424919
scalar IntersectionExampleScenario.node[11].appl 	VehicleRemoved 	0
scalar IntersectionExampleScenario.node[11].appl 	ArrivedAtDest 	1
scalar IntersectionExampleScenario.node[11].appl 	IntersectionEnterTime 	36.5
scalar IntersectionExampleScenario.node[11].appl 	IntersectionExitTime 	60.321241949685
scalar IntersectionExampleScenario.node[11].appl 	NumberOfCollisions 	0
scalar IntersectionExampleScenario.node[11].nic.phy80211p 	busyTime 	0
scalar IntersectionExampleScenario.node[11].nic.mac1609_4 	ReceivedUnicastPackets 	0
scalar IntersectionExampleScenario.node[11].nic.mac1609_4 	ReceivedBroadcasts 	0
scalar IntersectionExampleScenario.node[11].nic.mac1609_4 	SentPackets 	0
scalar IntersectionExampleScenario.node[11].nic.mac1609_4 	SNIRLostPackets 	0
scalar IntersectionExampleScenario.node[11].nic.mac1609_4 	RXTXLostPackets 	0
scalar IntersectionExampleScenario.node[11].nic.mac1609_4 	TotalLostPackets 	0
scalar IntersectionExampleScenario.node[11].nic.mac1609_4 	DroppedPacketsInMac 	0
scalar IntersectionExampleScenario.node[11].nic.mac1609_4 	TooLittleTime 	0
scalar IntersectionExampleScenario.node[11].nic.mac1609_4 	TimesIntoBackoff 	0
scalar IntersectionExampleScenario.node[11].nic.mac1609_4 	SlotsBackoff 	0
scalar IntersectionExampleScenario.node[11].nic.mac1609_4 	NumInternalContention 	0
scalar IntersectionExampleScenario.node[11].nic.mac1609_4 	totalBusyTime 	0
scalar IntersectionExampleScenario.node[11].veinsmobility 	startTime 	36.5
scalar IntersectionExampleScenario.node[11].veinsmobility 	totalTime 	40.25
scalar IntersectionExampleScenario.node[11].veinsmobility 	stopTime 	77
scalar IntersectionExampleScenario.node[11].veinsmobility 	minSpeed 	5.6500000953674
scalar IntersectionExampleScenario.node[11].veinsmobility 	maxSpeed 	15.375
scalar IntersectionExampleScenario.node[11].veinsmobility 	totalDistance 	555.56343901933
scalar IntersectionExampleScenario.node[11].veinsmobility 	totalCO2Emission 	122.08813281705
scalar IntersectionExampleScenario.node[14].appl 	VehicleRemoved 	0
scalar IntersectionExampleScenario.node[14].appl 	ArrivedAtDest 	1
scalar IntersectionExampleScenario.node[14].appl 	IntersectionEnterTime 	37.75
scalar IntersectionExampleScenario.node[14].appl 	IntersectionExitTime 	62.562466981879
scalar IntersectionExampleScenario.node[14].appl 	NumberOfCollisions 	0
scalar IntersectionExampleScenario.node[14].nic.phy80211p 	busyTime 	0
scalar IntersectionExampleScenario.node[14].nic.mac1609_4 	ReceivedUnicastPackets 	0
scalar IntersectionExampleScenario.node[14].nic.mac1609_4 	ReceivedBroadcasts 	0
scalar IntersectionExampleScenario.node[14].nic.mac1609_4 	SentPackets 	0
scalar IntersectionExampleScenario.node[14].nic.mac1609_4 	SNIRLostPackets 	0
scalar IntersectionExampleScenario.node[14].nic.mac1609_4 	RXTXLostPackets 	0
scalar IntersectionExampleScenario.node[14].nic.mac1609_4 	TotalLostPackets 	0
scalar IntersectionExampleScenario.node[14].nic.mac1609_4 	DroppedPacketsInMac 	0
scalar IntersectionExampleScenario.node[14].nic.mac1609_4 	TooLittleTime 	0
scalar IntersectionExampleScenario.node[14].nic.mac1609_4 	TimesIntoBackoff 	0
scalar IntersectionExampleScenario.node[14].nic.mac1609_4 	SlotsBackoff 	0
scalar IntersectionExampleScenario.node[14].nic.mac1609_4 	NumInternalContention 	0
scalar IntersectionExampleScenario.node[14].nic.mac1609_4 	totalBusyTime 	0
scalar IntersectionExampleScenario.node[14].veinsmobility 	startTime 	37.75
scalar IntersectionExampleScenario.node[14].veinsmobility 	totalTime 	41.25
scalar IntersectionExampleScenario.node[14].veinsmobility 	stopTime 	79.25
scalar IntersectionExampleScenario.node[14].veinsmobility 	minSpeed 	5.6500000953674
scalar IntersectionExampleScenario.node[14].veinsmobility 	maxSpeed 	15.720445632935
scalar IntersectionExampleScenario.node[14].veinsmobility 	totalDistance 	567.39596816185
scalar IntersectionExampleScenario.node[14].veinsmobility 	totalCO2Emission 	134.99936493958
scalar IntersectionExampleScenario.node[8].appl 	VehicleRemoved 	0
scalar IntersectionExampleScenario.node[8].appl 	ArrivedAtDest 	1
scalar IntersectionExampleScenario.node[8].appl 	IntersectionEnterTime 	28.25
scalar IntersectionExampleScenario.node[8].appl 	IntersectionExitTime 	66.289961224626
scalar IntersectionExampleScenario.node[8].appl 	NumberOfCollisions 	0
scalar IntersectionExampleScenario.node[8].nic.phy80211p 	busyTime 	0
scalar IntersectionExampleScenario.node[8].nic.mac1609_4 	ReceivedUnicastPackets 	0
scalar IntersectionExampleScenario.node[8].nic.mac1609_4 	ReceivedBroadcasts 	0
scalar IntersectionExampleScenario.node[8].nic.mac1609_4 	SentPackets 	0
scalar IntersectionExampleScenario.node[8].nic.mac1609_4 	SNIRLostPackets 	0
scalar IntersectionExampleScenario.node[8].nic.mac1609_4 	RXTXLostPackets 	0
scalar IntersectionExampleScenario.node[8].nic.mac1609_4 	TotalLostPackets 	0
scalar IntersectionExampleScenario.node[8].nic.mac1609_4 	DroppedPacketsInMac 	0
scalar IntersectionExampleScenario.node[8].nic.mac1609_4 	TooLittleTime 	0
scalar IntersectionExampleScenario.node[8].nic.mac1609_4 	TimesIntoBackoff 	0
scalar IntersectionExampleScenario.node[8].nic.mac1609_4 	SlotsBackoff 	0
scalar IntersectionExampleScenario.node[8].nic.mac1609_4 	NumInternalContention 	0
scalar IntersectionExampleScenario.node[8].nic.mac1609_4 	totalBusyTime 	0
scalar IntersectionExampleScenario.node[8].veinsmobility 	startTime 	28.25
scalar IntersectionExampleScenario.node[8].veinsmobility 	totalTime 	54.25
scalar IntersectionExampleScenario.node[8].veinsmobility 	stopTime 	82.75
scalar IntersectionExampleScenario.node[8].veinsmobility 	minSpeed 	0
scalar IntersectionExampleScenario.node[8].veinsmobility 	maxSpeed 	15.375
scalar IntersectionExampleScenario.node[8].veinsmobility 	totalDistance 	549.30346788516
scalar IntersectionExampleScenario.node[8].veinsmobility 	totalCO2Emission 	145.02918532591
scalar IntersectionExampleScenario.node[13].appl 	VehicleRemoved 	0
scalar IntersectionExampleScenario.node[13].appl 	ArrivedAtDest 	1
scalar IntersectionExampleScenario.node[13].appl 	IntersectionEnterTime 	37.75
scalar IntersectionExampleScenario.node[13].appl 	IntersectionExitTime 	68.590333465196
scalar IntersectionExampleScenario.node[13].appl 	NumberOfCollisions 	0
scalar IntersectionExampleScenario.node[13].nic.phy80211p 	busyTime 	0
scalar IntersectionExampleScenario.node[13].nic.mac1609_4 	ReceivedUnicastPackets 	0
scalar IntersectionExampleScenario.node[13].nic.mac1609_4 	ReceivedBroadcasts 	0
scalar IntersectionExampleScenario.node[13].nic.mac1609_4 	SentPackets 	0
scalar IntersectionExampleScenario.node[13].nic.mac1609_4 	SNIRLostPackets 	0
scalar IntersectionExampleScenario.node[13].nic.mac1609_4 	RXTXLostPackets 	0
scalar IntersectionExampleScenario.node[13].nic.mac1609_4 	TotalLostPackets 	0
scalar IntersectionExampleScenario.node[13].nic.mac1609_4 	DroppedPacketsInMac 	0
scalar IntersectionExampleScenario.node[13].nic.mac1609_4 	TooLittleTime 	0
scalar IntersectionExampleScenario.node[13].nic.mac1609_4 	TimesIntoBackoff 	0
scalar IntersectionExampleScenario.node[13].nic.mac1609_4 	SlotsBackoff 	0
scalar IntersectionExampleScenario.node[13].nic.mac1609_4 	NumInternalContention 	0
scalar IntersectionExampleScenario.node[13].nic.mac1609_4 	totalBusyTime 	0
scalar IntersectionExampleScenario.node[13].veinsmobility 	startTime 	37.75
scalar IntersectionExampleScenario.node[13].veinsmobility 	totalTime 	47.25
scalar IntersectionExampleScenario.node[13].veinsmobility 	stopTime 	85.25
scalar IntersectionExampleScenario.node[13].veinsmobility 	minSpeed 	0
scalar IntersectionExampleScenario.node[13].veinsmobility 	maxSpeed 	15.64999961853
scalar IntersectionExampleScenario.node[13].veinsmobility 	totalDistance 	544.20559839563
scalar IntersectionExampleScenario.node[13].veinsmobility 	totalCO2Emission 	140.08194433843
scalar IntersectionExampleScenario.node[10].appl 	VehicleRemoved 	0
scalar IntersectionExampleScenario.node[10].appl 	ArrivedAtDest 	1
scalar IntersectionExampleScenario.node[10].appl 	IntersectionEnterTime 	34.5
scalar IntersectionExampleScenario.node[10].appl 	IntersectionExitTime 	67.335867562972
scalar IntersectionExampleScenario.node[10].appl 	NumberOfCollisions 	0
scalar IntersectionExampleScenario.node[10].nic.phy80211p 	busyTime 	0
scalar IntersectionExampleScenario.node[10].nic.mac1609_4 	ReceivedUnicastPackets 	0
scalar IntersectionExampleScenario.node[10].nic.mac1609_4 	ReceivedBroadcasts 	0
scalar IntersectionExampleScenario.node[10].nic.mac1609_4 	SentPackets 	0
scalar IntersectionExampleScenario.node[10].nic.mac1609_4 	SNIRLostPackets 	0
scalar IntersectionExampleScenario.node[10].nic.mac1609_4 	RXTXLostPackets 	0
scalar IntersectionExampleScenario.node[10].nic.mac1609_4 	TotalLostPackets 	0
scalar IntersectionExampleScenario.node[10].nic.mac1609_4 	DroppedPacketsInMac 	0
scalar IntersectionExampleScenario.node[10].nic.mac1609_4 	TooLittleTime 	0
scalar IntersectionExampleScenario.node[10].nic.mac1609_4 	TimesIntoBackoff 	0
scalar IntersectionExampleScenario.node[10].nic.mac1609_4 	SlotsBackoff 	0
scalar IntersectionExampleScenario.node[10].nic.mac1609_4 	NumInternalContention 	0
scalar IntersectionExampleScenario.node[10].nic.mac1609_4 	totalBusyTime 	0
scalar IntersectionExampleScenario.node[10].veinsmobility 	startTime 	34.5
scalar IntersectionExampleScenario.node[10].veinsmobility 	totalTime 	50.5
scalar IntersectionExampleScenario.node[10].veinsmobility 	stopTime 	85.25
scalar IntersectionExampleScenario.node[10].veinsmobility 	minSpeed 	1.553130030632
scalar IntersectionExampleScenario.node[10].veinsmobility 	maxSpeed 	14.625
scalar IntersectionExampleScenario.node[10].veinsmobility 	totalDistance 	545.65256891778
scalar IntersectionExampleScenario.node[10].veinsmobility 	totalCO2Emission 	130.57736119102
scalar IntersectionExampleScenario.node[15].appl 	VehicleRemoved 	0
scalar IntersectionExampleScenario.node[15].appl 	ArrivedAtDest 	1
scalar IntersectionExampleScenario.node[15].appl 	IntersectionEnterTime 	40
scalar IntersectionExampleScenario.node[15].appl 	IntersectionExitTime 	70.333162451221
scalar IntersectionExampleScenario.node[15].appl 	NumberOfCollisions 	0
scalar IntersectionExampleScenario.node[15].nic.phy80211p 	busyTime 	0
scalar IntersectionExampleScenario.node[15].nic.mac1609_4 	ReceivedUnicastPackets 	0
scalar IntersectionExampleScenario.node[15].nic.mac1609_4 	ReceivedBroadcasts 	0
scalar IntersectionExampleScenario.node[15].nic.mac1609_4 	SentPackets 	0
scalar IntersectionExampleScenario.node[15].nic.mac1609_4 	SNIRLostPackets 	0
scalar IntersectionExampleScenario.node[15].nic.mac1609_4 	RXTXLostPackets 	0
scalar IntersectionExampleScenario.node[15].nic.mac1609_4 	TotalLostPackets 	0
scalar IntersectionExampleScenario.node[15].nic.mac1609_4 	DroppedPacketsInMac 	0
scalar IntersectionExampleScenario.node[15].nic.mac1609_4 	TooLittleTime 	0
scalar IntersectionExampleScenario.node[15].nic.mac1609_4 	TimesIntoBackoff 	0
scalar IntersectionExampleScenario.node[15].nic.mac1609_4 	SlotsBackoff 	0
scalar IntersectionExampleScenario.node[15].nic.mac1609_4 	NumInternalContention 	0
scalar IntersectionExampleScenario.node[15].nic.mac1609_4 	totalBusyTime 	0
scalar IntersectionExampleScenario.node[15].veinsmobility 	startTime 	40
scalar IntersectionExampleScenario.node[15].veinsmobility 	totalTime 	45.75
scalar IntersectionExampleScenario.node[15].veinsmobility 	stopTime 	86
scalar IntersectionExampleScenario.node[15].veinsmobility 	minSpeed 	0
scalar IntersectionExampleScenario.node[15].veinsmobility 	maxSpeed 	16.125
scalar IntersectionExampleScenario.node[15].veinsmobility 	totalDistance 	568.07379150391
scalar IntersectionExampleScenario.node[15].veinsmobility 	totalCO2Emission 	141.67297698151
scalar IntersectionExampleScenario.node[19].appl 	VehicleRemoved 	0
scalar IntersectionExampleScenario.node[19].appl 	ArrivedAtDest 	1
scalar IntersectionExampleScenario.node[19].appl 	IntersectionEnterTime 	50
scalar IntersectionExampleScenario.node[19].appl 	IntersectionExitTime 	72.279800309043
scalar IntersectionExampleScenario.node[19].appl 	NumberOfCollisions 	0
scalar IntersectionExampleScenario.node[19].nic.phy80211p 	busyTime 	0
scalar IntersectionExampleScenario.node[19].nic.mac1609_4 	ReceivedUnicastPackets 	0
scalar IntersectionExampleScenario.node[19].nic.mac1609_4 	ReceivedBroadcasts 	0
scalar IntersectionExampleScenario.node[19].nic.mac1609_4 	SentPackets 	0
scalar IntersectionExampleScenario.node[19].nic.mac1609_4 	SNIRLostPackets 	0
scalar IntersectionExampleScenario.node[19].nic.mac1609_4 	RXTXLostPackets 	0
scalar IntersectionExampleScenario.node[19].nic.mac1609_4 	TotalLostPackets 	0
scalar IntersectionExampleScenario.node[19].nic.mac1609_4 	DroppedPacketsInMac 	0
scalar IntersectionExampleScenario.node[19].nic.mac1609_4 	TooLittleTime 	0
scalar IntersectionExampleScenario.node[19].nic.mac1609_4 	TimesIntoBackoff 	0
scalar IntersectionExampleScenario.node[19].nic.mac1609_4 	SlotsBackoff 	0
scalar IntersectionExampleScenario.node[19].nic.mac1609_4 	NumInternalContention 	0
scalar IntersectionExampleScenario.node[19].nic.mac1609_4 	totalBusyTime 	0
scalar IntersectionExampleScenario.node[19].veinsmobility 	startTime 	50
scalar IntersectionExampleScenario.node[19].veinsmobility 	totalTime 	37.75
scalar IntersectionExampleScenario.node[19].veinsmobility 	stopTime 	88
scalar IntersectionExampleScenario.node[19].veinsmobility 	minSpeed 	5.6500000953674
scalar IntersectionExampleScenario.node[19].veinsmobility 	maxSpeed 	16.27499961853
scalar IntersectionExampleScenario.node[19].veinsmobility 	totalDistance 	550.90183258057
scalar IntersectionExampleScenario.node[19].veinsmobility 	totalCO2Emission 	121.94476160598
scalar IntersectionExampleScenario.node[16].appl 	VehicleRemoved 	0
scalar IntersectionExampleScenario.node[16].appl 	ArrivedAtDest 	1
scalar IntersectionExampleScenario.node[16].appl 	IntersectionEnterTime 	41.25
scalar IntersectionExampleScenario.node[16].appl 	IntersectionExitTime 	72.283896801731
scalar IntersectionExampleScenario.node[16].appl 	NumberOfCollisions 	0
scalar IntersectionExampleScenario.node[16].nic.phy80211p 	busyTime 	0
scalar IntersectionExampleScenario.node[16].nic.mac1609_4 	ReceivedUnicastPackets 	0
scalar IntersectionExampleScenario.node[16].nic.mac1609_4 	ReceivedBroadcasts 	0
scalar IntersectionExampleScenario.node[16].nic.mac1609_4 	SentPackets 	0
scalar IntersectionExampleScenario.node[16].nic.mac1609_4 	SNIRLostPackets 	0
scalar IntersectionExampleScenario.node[16].nic.mac1609_4 	RXTXLostPackets 	0
scalar IntersectionExampleScenario.node[16].nic.mac1609_4 	TotalLostPackets 	0
scalar IntersectionExampleScenario.node[16].nic.mac1609_4 	DroppedPacketsInMac 	0
scalar IntersectionExampleScenario.node[16].nic.mac1609_4 	TooLittleTime 	0
scalar IntersectionExampleScenario.node[16].nic.mac1609_4 	TimesIntoBackoff 	0
scalar IntersectionExampleScenario.node[16].nic.mac1609_4 	SlotsBackoff 	0
scalar IntersectionExampleScenario.node[16].nic.mac1609_4 	NumInternalContention 	0
scalar IntersectionExampleScenario.node[16].nic.mac1609_4 	totalBusyTime 	0
scalar IntersectionExampleScenario.node[16].veinsmobility 	startTime 	41.25
scalar IntersectionExampleScenario.node[16].veinsmobility 	totalTime 	47.25
scalar IntersectionExampleScenario.node[16].veinsmobility 	stopTime 	88.75
scalar IntersectionExampleScenario.node[16].veinsmobility 	minSpeed 	4.5882987976074
scalar IntersectionExampleScenario.node[16].veinsmobility 	maxSpeed 	15.421831130981
scalar IntersectionExampleScenario.node[16].veinsmobility 	totalDistance 	581.39036560059
scalar IntersectionExampleScenario.node[16].veinsmobility 	totalCO2Emission 	137.32327211895
scalar IntersectionExampleScenario.node[17].appl 	VehicleRemoved 	0
scalar IntersectionExampleScenario.node[17].appl 	ArrivedAtDest 	1
scalar IntersectionExampleScenario.node[17].appl 	IntersectionEnterTime 	45.25
scalar IntersectionExampleScenario.node[17].appl 	IntersectionExitTime 	74.593207355123
scalar IntersectionExampleScenario.node[17].appl 	NumberOfCollisions 	0
scalar IntersectionExampleScenario.node[17].nic.phy80211p 	busyTime 	0
scalar IntersectionExampleScenario.node[17].nic.mac1609_4 	ReceivedUnicastPackets 	0
scalar IntersectionExampleScenario.node[17].nic.mac1609_4 	ReceivedBroadcasts 	0
scalar IntersectionExampleScenario.node[17].nic.mac1609_4 	SentPackets 	0
scalar IntersectionExampleScenario.node[17].nic.mac1609_4 	SNIRLostPackets 	0
scalar IntersectionExampleScenario.node[17].nic.mac1609_4 	RXTXLostPackets 	0
scalar IntersectionExampleScenario.node[17].nic.mac1609_4 	TotalLostPackets 	0
scalar IntersectionExampleScenario.node[17].nic.mac1609_4 	DroppedPacketsInMac 	0
scalar IntersectionExampleScenario.node[17].nic.mac1609_4 	TooLittleTime 	0
scalar IntersectionExampleScenario.node[17].nic.mac1609_4 	TimesIntoBackoff 	0
scalar IntersectionExampleScenario.node[17].nic.mac1609_4 	SlotsBackoff 	0
scalar IntersectionExampleScenario.node[17].nic.mac1609_4 	NumInternalContention 	0
scalar IntersectionExampleScenario.node[17].nic.mac1609_4 	totalBusyTime 	0
scalar IntersectionExampleScenario.node[17].veinsmobility 	startTime 	45.25
scalar IntersectionExampleScenario.node[17].veinsmobility 	totalTime 	46.25
scalar IntersectionExampleScenario.node[17].veinsmobility 	stopTime 	91.75
scalar IntersectionExampleScenario.node[17].veinsmobility 	minSpeed 	5.6500000953674
scalar IntersectionExampleScenario.node[17].veinsmobility 	maxSpeed 	14.651332855225
scalar IntersectionExampleScenario.node[17].veinsmobility 	totalDistance 	575.23684692383
scalar IntersectionExampleScenario.node[17].veinsmobility 	totalCO2Emission 	127.44836464148
scalar IntersectionExampleScenario.node[18].appl 	VehicleRemoved 	0
scalar IntersectionExampleScenario.node[18].appl 	ArrivedAtDest 	1
scalar IntersectionExampleScenario.node[18].appl 	IntersectionEnterTime 	48.75
scalar IntersectionExampleScenario.node[18].appl 	IntersectionExitTime 	76.514689830132
scalar IntersectionExampleScenario.node[18].appl 	NumberOfCollisions 	0
scalar IntersectionExampleScenario.node[18].nic.phy80211p 	busyTime 	0
scalar IntersectionExampleScenario.node[18].nic.mac1609_4 	ReceivedUnicastPackets 	0
scalar IntersectionExampleScenario.node[18].nic.mac1609_4 	ReceivedBroadcasts 	0
scalar IntersectionExampleScenario.node[18].nic.mac1609_4 	SentPackets 	0
scalar IntersectionExampleScenario.node[18].nic.mac1609_4 	SNIRLostPackets 	0
scalar IntersectionExampleScenario.node[18].nic.mac1609_4 	RXTXLostPackets 	0
scalar IntersectionExampleScenario.node[18].nic.mac1609_4 	TotalLostPackets 	0
scalar IntersectionExampleScenario.node[18].nic.mac1609_4 	DroppedPacketsInMac 	0
scalar IntersectionExampleScenario.node[18].nic.mac1609_4 	TooLittleTime 	0
scalar IntersectionExampleScenario.node[18].nic.mac1609_4 	TimesIntoBackoff 	0
scalar IntersectionExampleScenario.node[18].nic.mac1609_4 	SlotsBackoff 	0
scalar IntersectionExampleScenario.node[18].nic.mac1609_4 	NumInternalContention 	0
scalar IntersectionExampleScenario.node[18].nic.mac1609_4 	totalBusyTime 	0
scalar IntersectionExampleScenario.node[18].veinsmobility 	startTime 	48.75
scalar IntersectionExampleScenario.node[18].veinsmobility 	totalTime 	43.75
scalar IntersectionExampleScenario.node[18].veinsmobility 	stopTime 	92.75
scalar IntersectionExampleScenario.node[18].veinsmobility 	minSpeed 	5.6500000953674
scalar IntersectionExampleScenario.node[18].veinsmobility 	maxSpeed 	16.5
scalar IntersectionExampleScenario.node[18].veinsmobility 	totalDistance 	563.89006641295
scalar IntersectionExampleScenario.node[18].veinsmobility 	totalCO2Emission 	137.45233194896
scalar IntersectionExampleScenario.node[26].appl 	VehicleRemoved 	0
scalar IntersectionExampleScenario.node[26].appl 	ArrivedAtDest 	1
scalar IntersectionExampleScenario.node[26].appl 	IntersectionEnterTime 	70.75
scalar IntersectionExampleScenario.node[26].appl 	IntersectionExitTime 	94.779516795825
scalar IntersectionExampleScenario.node[26].appl 	NumberOfCollisions 	0
scalar IntersectionExampleScenario.node[26].nic.phy80211p 	busyTime 	0
scalar IntersectionExampleScenario.node[26].nic.mac1609_4 	ReceivedUnicastPackets 	0
scalar IntersectionExampleScenario.node[26].nic.mac1609_4 	ReceivedBroadcasts 	0
scalar IntersectionExampleScenario.node[26].nic.mac1609_4 	SentPackets 	0
scalar IntersectionExampleScenario.node[26].nic.mac1609_4 	SNIRLostPackets 	0
scalar IntersectionExampleScenario.node[26].nic.mac1609_4 	RXTXLostPackets 	0
scalar IntersectionExampleScenario.node[26].nic.mac1609_4 	TotalLostPackets 	0
scalar IntersectionExampleScenario.node[26].nic.mac1609_4 	DroppedPacketsInMac 	0
scalar IntersectionExampleScenario.node[26].nic.mac1609_4 	TooLittleTime 	0
scalar IntersectionExampleScenario.node[26].nic.mac1609_4 	TimesIntoBackoff 	0
scalar IntersectionExampleScenario.node[26].nic.mac1609_4 	SlotsBackoff 	0
scalar IntersectionExampleScenario.node[26].nic.mac1609_4 	NumInternalContention 	0
scalar IntersectionExampleScenario.node[26].nic.mac1609_4 	totalBusyTime 	0
scalar IntersectionExampleScenario.node[26].veinsmobility 	startTime 	70.75
scalar IntersectionExampleScenario.node[26].veinsmobility 	totalTime 	41.25
scalar IntersectionExampleScenario.node[26].veinsmobility 	stopTime 	112.25
scalar IntersectionExampleScenario.node[26].veinsmobility 	minSpeed 	5.6500000953674
scalar IntersectionExampleScenario.node[26].veinsmobility 	maxSpeed 	15.25
scalar IntersectionExampleScenario.node[26].veinsmobility 	totalDistance 	544.92889274248
scalar IntersectionExampleScenario.node[26].veinsmobility 	totalCO2Emission 	123.27490658231
scalar IntersectionExampleScenario.node[20].appl 	VehicleRemoved 	0
scalar IntersectionExampleScenario.node[20].appl 	ArrivedAtDest 	1
scalar IntersectionExampleScenario.node[20].appl 	IntersectionEnterTime 	58.25
scalar IntersectionExampleScenario.node[20].appl 	IntersectionExitTime 	97.287316856353
scalar IntersectionExampleScenario.node[20].appl 	NumberOfCollisions 	0
scalar IntersectionExampleScenario.node[20].nic.phy80211p 	busyTime 	0
scalar IntersectionExampleScenario.node[20].nic.mac1609_4 	ReceivedUnicastPackets 	0
scalar IntersectionExampleScenario.node[20].nic.mac1609_4 	ReceivedBroadcasts 	0
scalar IntersectionExampleScenario.node[20].nic.mac1609_4 	SentPackets 	0
scalar IntersectionExampleScenario.node[20].nic.mac1609_4 	SNIRLostPackets 	0
scalar IntersectionExampleScenario.node[20].nic.mac1609_4 	RXTXLostPackets 	0
scalar IntersectionExampleScenario.node[20].nic.mac1609_4 	TotalLostPackets 	0
scalar IntersectionExampleScenario.node[20].nic.mac1609_4 	DroppedPacketsInMac 	0
scalar IntersectionExampleScenario.node[20].nic.mac1609_4 	TooLittleTime 	0
scalar IntersectionExampleScenario.node[20].nic.mac1609_4 	TimesIntoBackoff 	0
scalar IntersectionExampleScenario.node[20].nic.mac1609_4 	SlotsBackoff 	0
scalar IntersectionExampleScenario.node[20].nic.mac1609_4 	NumInternalContention 	0
scalar IntersectionExampleScenario.node[20].nic.mac1609_4 	totalBusyTime 	0
scalar IntersectionExampleScenario.node[20].veinsmobility 	startTime 	58.25
scalar IntersectionExampleScenario.node[20].veinsmobility 	totalTime 	55
scalar IntersectionExampleScenario.node[20].veinsmobility 	stopTime 	113.5
scalar IntersectionExampleScenario.node[20].veinsmobility 	minSpeed 	0
scalar IntersectionExampleScenario.node[20].veinsmobility 	maxSpeed 	15.64999961853
scalar IntersectionExampleScenario.node[20].veinsmobility 	totalDistance 	551.9105682373
scalar IntersectionExampleScenario.node[20].veinsmobility 	totalCO2Emission 	148.65942390862
scalar IntersectionExampleScenario.node[21].appl 	VehicleRemoved 	0
scalar IntersectionExampleScenario.node[21].appl 	ArrivedAtDest 	1
scalar IntersectionExampleScenario.node[21].appl 	IntersectionEnterTime 	60
scalar IntersectionExampleScenario.node[21].appl 	IntersectionExitTime 	96.602366947482
scalar IntersectionExampleScenario.node[21].appl 	NumberOfCollisions 	0
scalar IntersectionExampleScenario.node[21].nic.phy80211p 	busyTime 	0
scalar IntersectionExampleScenario.node[21].nic.mac1609_4 	ReceivedUnicastPackets 	0
scalar IntersectionExampleScenario.node[21].nic.mac1609_4 	ReceivedBroadcasts 	0
scalar IntersectionExampleScenario.node[21].nic.mac1609_4 	SentPackets 	0
scalar IntersectionExampleScenario.node[21].nic.mac1609_4 	SNIRLostPackets 	0
scalar IntersectionExampleScenario.node[21].nic.mac1609_4 	RXTXLostPackets 	0
scalar IntersectionExampleScenario.node[21].nic.mac1609_4 	TotalLostPackets 	0
scalar IntersectionExampleScenario.node[21].nic.mac1609_4 	DroppedPacketsInMac 	0
scalar IntersectionExampleScenario.node[21].nic.mac1609_4 	TooLittleTime 	0
scalar IntersectionExampleScenario.node[21].nic.mac1609_4 	TimesIntoBackoff 	0
scalar IntersectionExampleScenario.node[21].nic.mac1609_4 	SlotsBackoff 	0
scalar IntersectionExampleScenario.node[21].nic.mac1609_4 	NumInternalContention 	0
scalar IntersectionExampleScenario.node[21].nic.mac1609_4 	totalBusyTime 	0
scalar IntersectionExampleScenario.node[21].veinsmobility 	startTime 	60
scalar IntersectionExampleScenario.node[21].veinsmobility 	totalTime 	54
scalar IntersectionExampleScenario.node[21].veinsmobility 	stopTime 	114.25
scalar IntersectionExampleScenario.node[21].veinsmobility 	minSpeed 	0
scalar IntersectionExampleScenario.node[21].veinsmobility 	maxSpeed 	15.02499961853
scalar IntersectionExampleScenario.node[21].veinsmobility 	totalDistance 	546.21670438201
scalar IntersectionExampleScenario.node[21].veinsmobility 	totalCO2Emission 	140.72255538394
scalar IntersectionExampleScenario.node[22].appl 	VehicleRemoved 	0
scalar IntersectionExampleScenario.node[22].appl 	ArrivedAtDest 	1
scalar IntersectionExampleScenario.node[22].appl 	IntersectionEnterTime 	65.5
scalar IntersectionExampleScenario.node[22].appl 	IntersectionExitTime 	98.272344627185
scalar IntersectionExampleScenario.node[22].appl 	NumberOfCollisions 	0
scalar IntersectionExampleScenario.node[22].nic.phy80211p 	busyTime 	0
scalar IntersectionExampleScenario.node[22].nic.mac1609_4 	ReceivedUnicastPackets 	0
scalar IntersectionExampleScenario.node[22].nic.mac1609_4 	ReceivedBroadcasts 	0
scalar IntersectionExampleScenario.node[22].nic.mac1609_4 	SentPackets 	0
scalar IntersectionExampleScenario.node[22].nic.mac1609_4 	SNIRLostPackets 	0
scalar IntersectionExampleScenario.node[22].nic.mac1609_4 	RXTXLostPackets 	0
scalar IntersectionExampleScenario.node[22].nic.mac1609_4 	TotalLostPackets 	0
scalar IntersectionExampleScenario.node[22].nic.mac1609_4 	DroppedPacketsInMac 	0
scalar IntersectionExampleScenario.node[22].nic.mac1609_4 	TooLittleTime 	0
scalar IntersectionExampleScenario.node[22].nic.mac1609_4 	TimesIntoBackoff 	0
scalar IntersectionExampleScenario.node[22].nic.mac1609_4 	SlotsBackoff 	0
scalar IntersectionExampleScenario.node[22].nic.mac1609_4 	NumInternalContention 	0
scalar IntersectionExampleScenario.node[22].nic.mac1609_4 	totalBusyTime 	0
scalar IntersectionExampleScenario.node[22].veinsmobility 	startTime 	65.5
scalar IntersectionExampleScenario.node[22].veinsmobility 	totalTime 	49
scalar IntersectionExampleScenario.node[22].veinsmobility 	stopTime 	114.75
scalar IntersectionExampleScenario.node[22].veinsmobility 	minSpeed 	0
scalar IntersectionExampleScenario.node[22].veinsmobility 	maxSpeed 	15.5
scalar IntersectionExampleScenario.node[22].veinsmobility 	totalDistance 	551.24021148682
scalar IntersectionExampleScenario.node[22].veinsmobility 	totalCO2Emission 	136.47556355343
scalar IntersectionExampleScenario.node[23].appl 	VehicleRemoved 	0
scalar IntersectionExampleScenario.node[23].appl 	ArrivedAtDest 	1
scalar IntersectionExampleScenario.node[23].appl 	IntersectionEnterTime 	66.75
scalar IntersectionExampleScenario.node[23].appl 	IntersectionExitTime 	99.600830792129
scalar IntersectionExampleScenario.node[23].appl 	NumberOfCollisions 	0
scalar IntersectionExampleScenario.node[23].nic.phy80211p 	busyTime 	0
scalar IntersectionExampleScenario.node[23].nic.mac1609_4 	ReceivedUnicastPackets 	0
scalar IntersectionExampleScenario.node[23].nic.mac1609_4 	ReceivedBroadcasts 	0
scalar IntersectionExampleScenario.node[23].nic.mac1609_4 	SentPackets 	0
scalar IntersectionExampleScenario.node[23].nic.mac1609_4 	SNIRLostPackets 	0
scalar IntersectionExampleScenario.node[23].nic.mac1609_4 	RXTXLostPackets 	0
scalar IntersectionExampleScenario.node[23].nic.mac1609_4 	TotalLostPackets 	0
scalar IntersectionExampleScenario.node[23].nic.mac1609_4 	DroppedPacketsInMac 	0
scalar IntersectionExampleScenario.node[23].nic.mac1609_4 	TooLittleTime 	0
scalar IntersectionExampleScenario.node[23].nic.mac1609_4 	TimesIntoBackoff 	0
scalar IntersectionExampleScenario.node[23].nic.mac1609_4 	SlotsBackoff 	0
scalar IntersectionExampleScenario.node[23].nic.mac1609_4 	NumInternalContention 	0
scalar IntersectionExampleScenario.node[23].nic.mac1609_4 	totalBusyTime 	0
scalar IntersectionExampleScenario.node[23].veinsmobility 	startTime 	66.75
scalar IntersectionExampleScenario.node[23].veinsmobility 	totalTime 	48.5
scalar IntersectionExampleScenario.node[23].veinsmobility 	stopTime 	115.5
scalar IntersectionExampleScenario.node[23].veinsmobility 	minSpeed 	1.714973449707
scalar IntersectionExampleScenario.node[23].veinsmobility 	maxSpeed 	15.64999961853
scalar IntersectionExampleScenario.node[23].veinsmobility 	totalDistance 	554.69773864746
scalar IntersectionExampleScenario.node[23].veinsmobility 	totalCO2Emission 	139.97891979099
scalar IntersectionExampleScenario.node[24].appl 	VehicleRemoved 	0
scalar IntersectionExampleScenario.node[24].appl 	ArrivedAtDest 	1
scalar IntersectionExampleScenario.node[24].appl 	IntersectionEnterTime 	68
scalar IntersectionExampleScenario.node[24].appl 	IntersectionExitTime 	100.75103854758
scalar IntersectionExampleScenario.node[24].appl 	NumberOfCollisions 	0
scalar IntersectionExampleScenario.node[24].nic.phy80211p 	busyTime 	0
scalar IntersectionExampleScenario.node[24].nic.mac1609_4 	ReceivedUnicastPackets 	0
scalar IntersectionExampleScenario.node[24].nic.mac1609_4 	ReceivedBroadcasts 	0
scalar IntersectionExampleScenario.node[24].nic.mac1609_4 	SentPackets 	0
scalar IntersectionExampleScenario.node[24].nic.mac1609_4 	SNIRLostPackets 	0
scalar IntersectionExampleScenario.node[24].nic.mac1609_4 	RXTXLostPackets 	0
scalar IntersectionExampleScenario.node[24].nic.mac1609_4 	TotalLostPackets 	0
scalar IntersectionExampleScenario.node[24].nic.mac1609_4 	DroppedPacketsInMac 	0
scalar IntersectionExampleScenario.node[24].nic.mac1609_4 	TooLittleTime 	0
scalar IntersectionExampleScenario.node[24].nic.mac1609_4 	TimesIntoBackoff 	0
scalar IntersectionExampleScenario.node[24].nic.mac1609_4 	SlotsBackoff 	0
scalar IntersectionExampleScenario.node[24].nic.mac1609_4 	NumInternalContention 	0
scalar IntersectionExampleScenario.node[24].nic.mac1609_4 	totalBusyTime 	0
scalar IntersectionExampleScenario.node[24].veinsmobility 	startTime 	68
scalar IntersectionExampleScenario.node[24].veinsmobility 	totalTime 	49.5
scalar IntersectionExampleScenario.node[24].veinsmobility 	stopTime 	117.75
scalar IntersectionExampleScenario.node[24].veinsmobility 	minSpeed 	3.0450279712677
scalar IntersectionExampleScenario.node[24].veinsmobility 	maxSpeed 	15.375
scalar IntersectionExampleScenario.node[24].veinsmobility 	totalDistance 	566.41890600135
scalar IntersectionExampleScenario.node[24].veinsmobility 	totalCO2Emission 	138.8131936998
scalar IntersectionExampleScenario.node[29].appl 	VehicleRemoved 	0
scalar IntersectionExampleScenario.node[29].appl 	ArrivedAtDest 	1
scalar IntersectionExampleScenario.node[29].appl 	IntersectionEnterTime 	72
scalar IntersectionExampleScenario.node[29].appl 	IntersectionExitTime 	101.30899413963
scalar IntersectionExampleScenario.node[29].appl 	NumberOfCollisions 	0
scalar IntersectionExampleScenario.node[29].nic.phy80211p 	busyTime 	0
scalar IntersectionExampleScenario.node[29].nic.mac1609_4 	ReceivedUnicastPackets 	0
scalar IntersectionExampleScenario.node[29].nic.mac1609_4 	ReceivedBroadcasts 	0
scalar IntersectionExampleScenario.node[29].nic.mac1609_4 	SentPackets 	0
scalar IntersectionExampleScenario.node[29].nic.mac1609_4 	SNIRLostPackets 	0
scalar IntersectionExampleScenario.node[29].nic.mac1609_4 	RXTXLostPackets 	0
scalar IntersectionExampleScenario.node[29].nic.mac1609_4 	TotalLostPackets 	0
scalar IntersectionExampleScenario.node[29].nic.mac1609_4 	DroppedPacketsInMac 	0
scalar IntersectionExampleScenario.node[29].nic.mac1609_4 	TooLittleTime 	0
scalar IntersectionExampleScenario.node[29].nic.mac1609_4 	TimesIntoBackoff 	0
scalar IntersectionExampleScenario.node[29].nic.mac1609_4 	SlotsBackoff 	0
scalar IntersectionExampleScenario.node[29].nic.mac1609_4 	NumInternalContention 	0
scalar IntersectionExampleScenario.node[29].nic.mac1609_4 	totalBusyTime 	0
scalar IntersectionExampleScenario.node[29].veinsmobility 	startTime 	72
scalar IntersectionExampleScenario.node[29].veinsmobility 	totalTime 	45.75
scalar IntersectionExampleScenario.node[29].veinsmobility 	stopTime 	118
scalar IntersectionExampleScenario.node[29].veinsmobility 	minSpeed 	4.1303563117981
scalar IntersectionExampleScenario.node[29].veinsmobility 	maxSpeed 	15.037982940674
scalar IntersectionExampleScenario.node[29].veinsmobility 	totalDistance 	519.60665963771
scalar IntersectionExampleScenario.node[29].veinsmobility 	totalCO2Emission 	134.26990303293
scalar IntersectionExampleScenario.node[28].appl 	VehicleRemoved 	0
scalar IntersectionExampleScenario.node[28].appl 	ArrivedAtDest 	1
scalar IntersectionExampleScenario.node[28].appl 	IntersectionEnterTime 	71.75
scalar IntersectionExampleScenario.node[28].appl 	IntersectionExitTime 	102.62361736735
scalar IntersectionExampleScenario.node[28].appl 	NumberOfCollisions 	0
scalar IntersectionExampleScenario.node[28].nic.phy80211p 	busyTime 	0
scalar IntersectionExampleScenario.node[28].nic.mac1609_4 	ReceivedUnicastPackets 	0
scalar IntersectionExampleScenario.node[28].nic.mac1609_4 	ReceivedBroadcasts 	0
scalar IntersectionExampleScenario.node[28].nic.mac1609_4 	SentPackets 	0
scalar IntersectionExampleScenario.node[28].nic.mac1609_4 	SNIRLostPackets 	0
scalar IntersectionExampleScenario.node[28].nic.mac1609_4 	RXTXLostPackets 	0
scalar IntersectionExampleScenario.node[28].nic.mac1609_4 	TotalLostPackets 	0
scalar IntersectionExampleScenario.node[28].nic.mac1609_4 	DroppedPacketsInMac 	0
scalar IntersectionExampleScenario.node[28].nic.mac1609_4 	TooLittleTime 	0
scalar IntersectionExampleScenario.node[28].nic.mac1609_4 	TimesIntoBackoff 	0
scalar IntersectionExampleScenario.node[28].nic.mac1609_4 	SlotsBackoff 	0
scalar IntersectionExampleScenario.node[28].nic.mac1609_4 	NumInternalContention 	0
scalar IntersectionExampleScenario.node[28].nic.mac1609_4 	totalBusyTime 	0
scalar IntersectionExampleScenario.node[28].veinsmobility 	startTime 	71.75
scalar IntersectionExampleScenario.node[28].veinsmobility 	totalTime 	46.75
scalar IntersectionExampleScenario.node[28].veinsmobility 	stopTime 	118.75
scalar IntersectionExampleScenario.node[28].veinsmobility 	minSpeed 	3.3286545276642
scalar IntersectionExampleScenario.node[28].veinsmobility 	maxSpeed 	15.5
scalar IntersectionExampleScenario.node[28].veinsmobility 	totalDistance 	568.92449188232
scalar IntersectionExampleScenario.node[28].veinsmobility 	totalCO2Emission 	140.7535558685
scalar IntersectionExampleScenario.node[25].appl 	VehicleRemoved 	0
scalar IntersectionExampleScenario.node[25].appl 	ArrivedAtDest 	1
scalar IntersectionExampleScenario.node[25].appl 	IntersectionEnterTime 	68.5
scalar IntersectionExampleScenario.node[25].appl 	IntersectionExitTime 	103.3730050805
scalar IntersectionExampleScenario.node[25].appl 	NumberOfCollisions 	0
scalar IntersectionExampleScenario.node[25].nic.phy80211p 	busyTime 	0
scalar IntersectionExampleScenario.node[25].nic.mac1609_4 	ReceivedUnicastPackets 	0
scalar IntersectionExampleScenario.node[25].nic.mac1609_4 	ReceivedBroadcasts 	0
scalar IntersectionExampleScenario.node[25].nic.mac1609_4 	SentPackets 	0
scalar IntersectionExampleScenario.node[25].nic.mac1609_4 	SNIRLostPackets 	0
scalar IntersectionExampleScenario.node[25].nic.mac1609_4 	RXTXLostPackets 	0
scalar IntersectionExampleScenario.node[25].nic.mac1609_4 	TotalLostPackets 	0
scalar IntersectionExampleScenario.node[25].nic.mac1609_4 	DroppedPacketsInMac 	0
scalar IntersectionExampleScenario.node[25].nic.mac1609_4 	TooLittleTime 	0
scalar IntersectionExampleScenario.node[25].nic.mac1609_4 	TimesIntoBackoff 	0
scalar IntersectionExampleScenario.node[25].nic.mac1609_4 	SlotsBackoff 	0
scalar IntersectionExampleScenario.node[25].nic.mac1609_4 	NumInternalContention 	0
scalar IntersectionExampleScenario.node[25].nic.mac1609_4 	totalBusyTime 	0
scalar IntersectionExampleScenario.node[25].veinsmobility 	startTime 	68.5
scalar IntersectionExampleScenario.node[25].veinsmobility 	totalTime 	51.5
scalar IntersectionExampleScenario.node[25].veinsmobility 	stopTime 	120.25
scalar IntersectionExampleScenario.node[25].veinsmobility 	minSpeed 	1.130872964859
scalar IntersectionExampleScenario.node[25].veinsmobility 	maxSpeed 	15.401627540588
scalar IntersectionExampleScenario.node[25].veinsmobility 	totalDistance 	565.39664487611
scalar IntersectionExampleScenario.node[25].veinsmobility 	totalCO2Emission 	166.70673427489
scalar IntersectionExampleScenario.node[27].appl 	VehicleRemoved 	0
scalar IntersectionExampleScenario.node[27].appl 	ArrivedAtDest 	1
scalar IntersectionExampleScenario.node[27].appl 	IntersectionEnterTime 	71.5
scalar IntersectionExampleScenario.node[27].appl 	IntersectionExitTime 	106.0119535457
scalar IntersectionExampleScenario.node[27].appl 	NumberOfCollisions 	0
scalar IntersectionExampleScenario.node[27].nic.phy80211p 	busyTime 	0
scalar IntersectionExampleScenario.node[27].nic.mac1609_4 	ReceivedUnicastPackets 	0
scalar IntersectionExampleScenario.node[27].nic.mac1609_4 	ReceivedBroadcasts 	0
scalar IntersectionExampleScenario.node[27].nic.mac1609_4 	SentPackets 	0
scalar IntersectionExampleScenario.node[27].nic.mac1609_4 	SNIRLostPackets 	0
scalar IntersectionExampleScenario.node[27].nic.mac1609_4 	RXTXLostPackets 	0
scalar IntersectionExampleScenario.node[27].nic.mac1609_4 	TotalLostPackets 	0
scalar IntersectionExampleScenario.node[27].nic.mac1609_4 	DroppedPacketsInMac 	0
scalar IntersectionExampleScenario.node[27].nic.mac1609_4 	TooLittleTime 	0
scalar IntersectionExampleScenario.node[27].nic.mac1609_4 	TimesIntoBackoff 	0
scalar IntersectionExampleScenario.node[27].nic.mac1609_4 	SlotsBackoff 	0
scalar IntersectionExampleScenario.node[27].nic.mac1609_4 	NumInternalContention 	0
scalar IntersectionExampleScenario.node[27].nic.mac1609_4 	totalBusyTime 	0
scalar IntersectionExampleScenario.node[27].veinsmobility 	startTime 	71.5
scalar IntersectionExampleScenario.node[27].veinsmobility 	totalTime 	51.75
scalar IntersectionExampleScenario.node[27].veinsmobility 	stopTime 	123.5
scalar IntersectionExampleScenario.node[27].veinsmobility 	minSpeed 	1.7659593820572
scalar IntersectionExampleScenario.node[27].veinsmobility 	maxSpeed 	14.65886592865
scalar IntersectionExampleScenario.node[27].veinsmobility 	totalDistance 	566.15389952413
scalar IntersectionExampleScenario.node[27].veinsmobility 	totalCO2Emission 	140.17189286348
scalar IntersectionExampleScenario.node[32].appl 	VehicleRemoved 	0
scalar IntersectionExampleScenario.node[32].appl 	ArrivedAtDest 	1
scalar IntersectionExampleScenario.node[32].appl 	IntersectionEnterTime 	84.25
scalar IntersectionExampleScenario.node[32].appl 	IntersectionExitTime 	108.02456782572
scalar IntersectionExampleScenario.node[32].appl 	NumberOfCollisions 	0
scalar IntersectionExampleScenario.node[32].nic.phy80211p 	busyTime 	0
scalar IntersectionExampleScenario.node[32].nic.mac1609_4 	ReceivedUnicastPackets 	0
scalar IntersectionExampleScenario.node[32].nic.mac1609_4 	ReceivedBroadcasts 	0
scalar IntersectionExampleScenario.node[32].nic.mac1609_4 	SentPackets 	0
scalar IntersectionExampleScenario.node[32].nic.mac1609_4 	SNIRLostPackets 	0
scalar IntersectionExampleScenario.node[32].nic.mac1609_4 	RXTXLostPackets 	0
scalar IntersectionExampleScenario.node[32].nic.mac1609_4 	TotalLostPackets 	0
scalar IntersectionExampleScenario.node[32].nic.mac1609_4 	DroppedPacketsInMac 	0
scalar IntersectionExampleScenario.node[32].nic.mac1609_4 	TooLittleTime 	0
scalar IntersectionExampleScenario.node[32].nic.mac1609_4 	TimesIntoBackoff 	0
scalar IntersectionExampleScenario.node[32].nic.mac1609_4 	SlotsBackoff 	0
scalar IntersectionExampleScenario.node[32].nic.mac1609_4 	NumInternalContention 	0
scalar IntersectionExampleScenario.node[32].nic.mac1609_4 	totalBusyTime 	0
scalar IntersectionExampleScenario.node[32].veinsmobility 	startTime 	84.25
scalar IntersectionExampleScenario.node[32].veinsmobility 	totalTime 	39.75
scalar IntersectionExampleScenario.node[32].veinsmobility 	stopTime 	124.25
scalar IntersectionExampleScenario.node[32].veinsmobility 	minSpeed 	5.6500000953674
scalar IntersectionExampleScenario.node[32].veinsmobility 	maxSpeed 	16.27499961853
scalar IntersectionExampleScenario.node[32].veinsmobility 	totalDistance 	551.52503269828
scalar IntersectionExampleScenario.node[32].veinsmobility 	totalCO2Emission 	134.55850754959
scalar IntersectionExampleScenario.node[30].appl 	VehicleRemoved 	0
scalar IntersectionExampleScenario.node[30].appl 	ArrivedAtDest 	1
scalar IntersectionExampleScenario.node[30].appl 	IntersectionEnterTime 	76.75
scalar IntersectionExampleScenario.node[30].appl 	IntersectionExitTime 	113.3297329841
scalar IntersectionExampleScenario.node[30].appl 	NumberOfCollisions 	0
scalar IntersectionExampleScenario.node[30].nic.phy80211p 	busyTime 	0
scalar IntersectionExampleScenario.node[30].nic.mac1609_4 	ReceivedUnicastPackets 	0
scalar IntersectionExampleScenario.node[30].nic.mac1609_4 	ReceivedBroadcasts 	0
scalar IntersectionExampleScenario.node[30].nic.mac1609_4 	SentPackets 	0
scalar IntersectionExampleScenario.node[30].nic.mac1609_4 	SNIRLostPackets 	0
scalar IntersectionExampleScenario.node[30].nic.mac1609_4 	RXTXLostPackets 	0
scalar IntersectionExampleScenario.node[30].nic.mac1609_4 	TotalLostPackets 	0
scalar IntersectionExampleScenario.node[30].nic.mac1609_4 	DroppedPacketsInMac 	0
scalar IntersectionExampleScenario.node[30].nic.mac1609_4 	TooLittleTime 	0
scalar IntersectionExampleScenario.node[30].nic.mac1609_4 	TimesIntoBackoff 	0
scalar IntersectionExampleScenario.node[30].nic.mac1609_4 	SlotsBackoff 	0
scalar IntersectionExampleScenario.node[30].nic.mac1609_4 	NumInternalContention 	0
scalar IntersectionExampleScenario.node[30].nic.mac1609_4 	totalBusyTime 	0
scalar IntersectionExampleScenario.node[30].veinsmobility 	startTime 	76.75
scalar IntersectionExampleScenario.node[30].veinsmobility 	totalTime 	51.25
scalar IntersectionExampleScenario.node[30].veinsmobility 	stopTime 	128.25
scalar IntersectionExampleScenario.node[30].veinsmobility 	minSpeed 	0
scalar IntersectionExampleScenario.node[30].veinsmobility 	maxSpeed 	16.89999961853
scalar IntersectionExampleScenario.node[30].veinsmobility 	totalDistance 	551.66159820557
scalar IntersectionExampleScenario.node[30].veinsmobility 	totalCO2Emission 	156.08465361093
scalar IntersectionExampleScenario.node[31].appl 	VehicleRemoved 	0
scalar IntersectionExampleScenario.node[31].appl 	ArrivedAtDest 	1
scalar IntersectionExampleScenario.node[31].appl 	IntersectionEnterTime 	82.25
scalar IntersectionExampleScenario.node[31].appl 	IntersectionExitTime 	114.30222284284
scalar IntersectionExampleScenario.node[31].appl 	NumberOfCollisions 	0
scalar IntersectionExampleScenario.node[31].nic.phy80211p 	busyTime 	0
scalar IntersectionExampleScenario.node[31].nic.mac1609_4 	ReceivedUnicastPackets 	0
scalar IntersectionExampleScenario.node[31].nic.mac1609_4 	ReceivedBroadcasts 	0
scalar IntersectionExampleScenario.node[31].nic.mac1609_4 	SentPackets 	0
scalar IntersectionExampleScenario.node[31].nic.mac1609_4 	SNIRLostPackets 	0
scalar IntersectionExampleScenario.node[31].nic.mac1609_4 	RXTXLostPackets 	0
scalar IntersectionExampleScenario.node[31].nic.mac1609_4 	TotalLostPackets 	0
scalar IntersectionExampleScenario.node[31].nic.mac1609_4 	DroppedPacketsInMac 	0
scalar IntersectionExampleScenario.node[31].nic.mac1609_4 	TooLittleTime 	0
scalar IntersectionExampleScenario.node[31].nic.mac1609_4 	TimesIntoBackoff 	0
scalar IntersectionExampleScenario.node[31].nic.mac1609_4 	SlotsBackoff 	0
scalar IntersectionExampleScenario.node[31].nic.mac1609_4 	NumInternalContention 	0
scalar IntersectionExampleScenario.node[31].nic.mac1609_4 	totalBusyTime 	0
scalar IntersectionExampleScenario.node[31].veinsmobility 	startTime 	82.25
scalar IntersectionExampleScenario.node[31].veinsmobility 	totalTime 	48.25
scalar IntersectionExampleScenario.node[31].veinsmobility 	stopTime 	130.75
scalar IntersectionExampleScenario.node[31].veinsmobility 	minSpeed 	1.2626973390579
scalar IntersectionExampleScenario.node[31].veinsmobility 	maxSpeed 	15.64999961853
scalar IntersectionExampleScenario.node[31].veinsmobility 	totalDistance 	548.93296409434
scalar IntersectionExampleScenario.node[31].veinsmobility 	totalCO2Emission 	136.82296942143
scalar IntersectionExampleScenario.node[33].appl 	VehicleRemoved 	0
scalar IntersectionExampleScenario.node[33].appl 	ArrivedAtDest 	1
scalar IntersectionExampleScenario.node[33].appl 	IntersectionEnterTime 	88.5
scalar IntersectionExampleScenario.node[33].appl 	IntersectionExitTime 	116.82305459899
scalar IntersectionExampleScenario.node[33].appl 	NumberOfCollisions 	0
scalar IntersectionExampleScenario.node[33].nic.phy80211p 	busyTime 	0
scalar IntersectionExampleScenario.node[33].nic.mac1609_4 	ReceivedUnicastPackets 	0
scalar IntersectionExampleScenario.node[33].nic.mac1609_4 	ReceivedBroadcasts 	0
scalar IntersectionExampleScenario.node[33].nic.mac1609_4 	SentPackets 	0
scalar IntersectionExampleScenario.node[33].nic.mac1609_4 	SNIRLostPackets 	0
scalar IntersectionExampleScenario.node[33].nic.mac1609_4 	RXTXLostPackets 	0
scalar IntersectionExampleScenario.node[33].nic.mac1609_4 	TotalLostPackets 	0
scalar IntersectionExampleScenario.node[33].nic.mac1609_4 	DroppedPacketsInMac 	0
scalar IntersectionExampleScenario.node[33].nic.mac1609_4 	TooLittleTime 	0
scalar IntersectionExampleScenario.node[33].nic.mac1609_4 	TimesIntoBackoff 	0
scalar IntersectionExampleScenario.node[33].nic.mac1609_4 	SlotsBackoff 	0
scalar IntersectionExampleScenario.node[33].nic.mac1609_4 	NumInternalContention 	0
scalar IntersectionExampleScenario.node[33].nic.mac1609_4 	totalBusyTime 	0
scalar IntersectionExampleScenario.node[33].veinsmobility 	startTime 	88.5
scalar IntersectionExampleScenario.node[33].veinsmobility 	totalTime 	44.75
scalar IntersectionExampleScenario.node[33].veinsmobility 	stopTime 	133.5
scalar IntersectionExampleScenario.node[33].veinsmobility 	minSpeed 	5.6500000953674
scalar IntersectionExampleScenario.node[33].veinsmobility 	maxSpeed 	15.875
scalar IntersectionExampleScenario.node[33].veinsmobility 	totalDistance 	543.49829638025
scalar IntersectionExampleScenario.node[33].veinsmobility 	totalCO2Emission 	141.07151378144
scalar IntersectionExampleScenario.node[35].appl 	VehicleRemoved 	0
scalar IntersectionExampleScenario.node[35].appl 	ArrivedAtDest 	1
scalar IntersectionExampleScenario.node[35].appl 	IntersectionEnterTime 	93.5
scalar IntersectionExampleScenario.node[35].appl 	IntersectionExitTime 	119.30893635395
scalar IntersectionExampleScenario.node[35].appl 	NumberOfCollisions 	0
scalar IntersectionExampleScenario.node[35].nic.phy80211p 	busyTime 	0
scalar IntersectionExampleScenario.node[35].nic.mac1609_4 	ReceivedUnicastPackets 	0
scalar IntersectionExampleScenario.node[35].nic.mac1609_4 	ReceivedBroadcasts 	0
scalar IntersectionExampleScenario.node[35].nic.mac1609_4 	SentPackets 	0
scalar IntersectionExampleScenario.node[35].nic.mac1609_4 	SNIRLostPackets 	0
scalar IntersectionExampleScenario.node[35].nic.mac1609_4 	RXTXLostPackets 	0
scalar IntersectionExampleScenario.node[35].nic.mac1609_4 	TotalLostPackets 	0
scalar IntersectionExampleScenario.node[35].nic.mac1609_4 	DroppedPacketsInMac 	0
scalar IntersectionExampleScenario.node[35].nic.mac1609_4 	TooLittleTime 	0
scalar IntersectionExampleScenario.node[35].nic.mac1609_4 	TimesIntoBackoff 	0
scalar IntersectionExampleScenario.node[35].nic.mac1609_4 	SlotsBackoff 	0
scalar IntersectionExampleScenario.node[35].nic.mac1609_4 	NumInternalContention 	0
scalar IntersectionExampleScenario.node[35].nic.mac1609_4 	totalBusyTime 	0
scalar IntersectionExampleScenario.node[35].veinsmobility 	startTime 	93.5
scalar IntersectionExampleScenario.node[35].veinsmobility 	totalTime 	42.25
scalar IntersectionExampleScenario.node[35].veinsmobility 	stopTime 	136
scalar IntersectionExampleScenario.node[35].veinsmobility 	minSpeed 	5.6500000953674
scalar IntersectionExampleScenario.node[35].veinsmobility 	maxSpeed 	15.875
scalar IntersectionExampleScenario.node[35].veinsmobility 	totalDistance 	545.35898797251
scalar IntersectionExampleScenario.node[35].veinsmobility 	totalCO2Emission 	132.63230755031
scalar IntersectionExampleScenario.node[36].appl 	VehicleRemoved 	0
scalar IntersectionExampleScenario.node[36].appl 	ArrivedAtDest 	1
scalar IntersectionExampleScenario.node[36].appl 	IntersectionEnterTime 	98.5
scalar IntersectionExampleScenario.node[36].appl 	IntersectionExitTime 	121.51084590744
scalar IntersectionExampleScenario.node[36].appl 	NumberOfCollisions 	0
scalar IntersectionExampleScenario.node[36].nic.phy80211p 	busyTime 	0
scalar IntersectionExampleScenario.node[36].nic.mac1609_4 	ReceivedUnicastPackets 	0
scalar IntersectionExampleScenario.node[36].nic.mac1609_4 	ReceivedBroadcasts 	0
scalar IntersectionExampleScenario.node[36].nic.mac1609_4 	SentPackets 	0
scalar IntersectionExampleScenario.node[36].nic.mac1609_4 	SNIRLostPackets 	0
scalar IntersectionExampleScenario.node[36].nic.mac1609_4 	RXTXLostPackets 	0
scalar IntersectionExampleScenario.node[36].nic.mac1609_4 	TotalLostPackets 	0
scalar IntersectionExampleScenario.node[36].nic.mac1609_4 	DroppedPacketsInMac 	0
scalar IntersectionExampleScenario.node[36].nic.mac1609_4 	TooLittleTime 	0
scalar IntersectionExampleScenario.node[36].nic.mac1609_4 	TimesIntoBackoff 	0
scalar IntersectionExampleScenario.node[36].nic.mac1609_4 	SlotsBackoff 	0
scalar IntersectionExampleScenario.node[36].nic.mac1609_4 	NumInternalContention 	0
scalar IntersectionExampleScenario.node[36].nic.mac1609_4 	totalBusyTime 	0
scalar IntersectionExampleScenario.node[36].veinsmobility 	startTime 	98.5
scalar IntersectionExampleScenario.node[36].veinsmobility 	totalTime 	39.25
scalar IntersectionExampleScenario.node[36].veinsmobility 	stopTime 	138
scalar IntersectionExampleScenario.node[36].veinsmobility 	minSpeed 	5.6500000953674
scalar IntersectionExampleScenario.node[36].veinsmobility 	maxSpeed 	15.5
scalar IntersectionExampleScenario.node[36].veinsmobility 	totalDistance 	553.91957092285
scalar IntersectionExampleScenario.node[36].veinsmobility 	totalCO2Emission 	116.53995530166
scalar IntersectionExampleScenario.node[34].appl 	VehicleRemoved 	0
scalar IntersectionExampleScenario.node[34].appl 	ArrivedAtDest 	1
scalar IntersectionExampleScenario.node[34].appl 	IntersectionEnterTime 	92.5
scalar IntersectionExampleScenario.node[34].appl 	IntersectionExitTime 	128.26581621799
scalar IntersectionExampleScenario.node[34].appl 	NumberOfCollisions 	0
scalar IntersectionExampleScenario.node[34].nic.phy80211p 	busyTime 	0
scalar IntersectionExampleScenario.node[34].nic.mac1609_4 	ReceivedUnicastPackets 	0
scalar IntersectionExampleScenario.node[34].nic.mac1609_4 	ReceivedBroadcasts 	0
scalar IntersectionExampleScenario.node[34].nic.mac1609_4 	SentPackets 	0
scalar IntersectionExampleScenario.node[34].nic.mac1609_4 	SNIRLostPackets 	0
scalar IntersectionExampleScenario.node[34].nic.mac1609_4 	RXTXLostPackets 	0
scalar IntersectionExampleScenario.node[34].nic.mac1609_4 	TotalLostPackets 	0
scalar IntersectionExampleScenario.node[34].nic.mac1609_4 	DroppedPacketsInMac 	0
scalar IntersectionExampleScenario.node[34].nic.mac1609_4 	TooLittleTime 	0
scalar IntersectionExampleScenario.node[34].nic.mac1609_4 	TimesIntoBackoff 	0
scalar IntersectionExampleScenario.node[34].nic.mac1609_4 	SlotsBackoff 	0
scalar IntersectionExampleScenario.node[34].nic.mac1609_4 	NumInternalContention 	0
scalar IntersectionExampleScenario.node[34].nic.mac1609_4 	totalBusyTime 	0
scalar IntersectionExampleScenario.node[34].veinsmobility 	startTime 	92.5
scalar IntersectionExampleScenario.node[34].veinsmobility 	totalTime 	51.75
scalar IntersectionExampleScenario.node[34].veinsmobility 	stopTime 	144.5
scalar IntersectionExampleScenario.node[34].veinsmobility 	minSpeed 	0
scalar IntersectionExampleScenario.node[34].veinsmobility 	maxSpeed 	15.721634864807
scalar IntersectionExampleScenario.node[34].veinsmobility 	totalDistance 	550.51123155704
scalar IntersectionExampleScenario.node[34].veinsmobility 	totalCO2Emission 	144.90392112276
scalar IntersectionExampleScenario.node[37].appl 	VehicleRemoved 	0
scalar IntersectionExampleScenario.node[37].appl 	ArrivedAtDest 	1
scalar IntersectionExampleScenario.node[37].appl 	IntersectionEnterTime 	103
scalar IntersectionExampleScenario.node[37].appl 	IntersectionExitTime 	127.80978215154
scalar IntersectionExampleScenario.node[37].appl 	NumberOfCollisions 	0
scalar IntersectionExampleScenario.node[37].nic.phy80211p 	busyTime 	0
scalar IntersectionExampleScenario.node[37].nic.mac1609_4 	ReceivedUnicastPackets 	0
scalar IntersectionExampleScenario.node[37].nic.mac1609_4 	ReceivedBroadcasts 	0
scalar IntersectionExampleScenario.node[37].nic.mac1609_4 	SentPackets 	0
scalar IntersectionExampleScenario.node[37].nic.mac1609_4 	SNIRLostPackets 	0
scalar IntersectionExampleScenario.node[37].nic.mac1609_4 	RXTXLostPackets 	0
scalar IntersectionExampleScenario.node[37].nic.mac1609_4 	TotalLostPackets 	0
scalar IntersectionExampleScenario.node[37].nic.mac1609_4 	DroppedPacketsInMac 	0
scalar IntersectionExampleScenario.node[37].nic.mac1609_4 	TooLittleTime 	0
scalar IntersectionExampleScenario.node[37].nic.mac1609_4 	TimesIntoBackoff 	0
scalar IntersectionExampleScenario.node[37].nic.mac1609_4 	SlotsBackoff 	0
scalar IntersectionExampleScenario.node[37].nic.mac1609_4 	NumInternalContention 	0
scalar IntersectionExampleScenario.node[37].nic.mac1609_4 	totalBusyTime 	0
scalar IntersectionExampleScenario.node[37].veinsmobility 	startTime 	103
scalar IntersectionExampleScenario.node[37].veinsmobility 	totalTime 	41.75
scalar IntersectionExampleScenario.node[37].veinsmobility 	stopTime 	145
scalar IntersectionExampleScenario.node[37].veinsmobility 	minSpeed 	5.6500000953674
scalar IntersectionExampleScenario.node[37].veinsmobility 	maxSpeed 	15.02499961853
scalar IntersectionExampleScenario.node[37].veinsmobility 	totalDistance 	552.13348323728
scalar IntersectionExampleScenario.node[37].veinsmobility 	totalCO2Emission 	122.49654967395
scalar IntersectionExampleScenario.node[38].appl 	VehicleRemoved 	0
scalar IntersectionExampleScenario.node[38].appl 	ArrivedAtDest 	1
scalar IntersectionExampleScenario.node[38].appl 	IntersectionEnterTime 	107.25
scalar IntersectionExampleScenario.node[38].appl 	IntersectionExitTime 	130.83848780516
scalar IntersectionExampleScenario.node[38].appl 	NumberOfCollisions 	0
scalar IntersectionExampleScenario.node[38].nic.phy80211p 	busyTime 	0
scalar IntersectionExampleScenario.node[38].nic.mac1609_4 	ReceivedUnicastPackets 	0
scalar IntersectionExampleScenario.node[38].nic.mac1609_4 	ReceivedBroadcasts 	0
scalar IntersectionExampleScenario.node[38].nic.mac1609_4 	SentPackets 	0
scalar IntersectionExampleScenario.node[38].nic.mac1609_4 	SNIRLostPackets 	0
scalar IntersectionExampleScenario.node[38].nic.mac1609_4 	RXTXLostPackets 	0
scalar IntersectionExampleScenario.node[38].nic.mac1609_4 	TotalLostPackets 	0
scalar IntersectionExampleScenario.node[38].nic.mac1609_4 	DroppedPacketsInMac 	0
scalar IntersectionExampleScenario.node[38].nic.mac1609_4 	TooLittleTime 	0
scalar IntersectionExampleScenario.node[38].nic.mac1609_4 	TimesIntoBackoff 	0
scalar IntersectionExampleScenario.node[38].nic.mac1609_4 	SlotsBackoff 	0
scalar IntersectionExampleScenario.node[38].nic.mac1609_4 	NumInternalContention 	0
scalar IntersectionExampleScenario.node[38].nic.mac1609_4 	totalBusyTime 	0
scalar IntersectionExampleScenario.node[38].veinsmobility 	startTime 	107.25
scalar IntersectionExampleScenario.node[38].veinsmobility 	totalTime 	39.5
scalar IntersectionExampleScenario.node[38].veinsmobility 	stopTime 	147
scalar IntersectionExampleScenario.node[38].veinsmobility 	minSpeed 	5.6500000953674
scalar IntersectionExampleScenario.node[38].veinsmobility 	maxSpeed 	15.722444534302
scalar IntersectionExampleScenario.node[38].veinsmobility 	totalDistance 	554.66783365814
scalar IntersectionExampleScenario.node[38].veinsmobility 	totalCO2Emission 	122.64067889725
scalar IntersectionExampleScenario.node[40].appl 	VehicleRemoved 	0
scalar IntersectionExampleScenario.node[40].appl 	ArrivedAtDest 	1
scalar IntersectionExampleScenario.node[40].appl 	IntersectionEnterTime 	110.25
scalar IntersectionExampleScenario.node[40].appl 	IntersectionExitTime 	144.30952798936
scalar IntersectionExampleScenario.node[40].appl 	NumberOfCollisions 	0
scalar IntersectionExampleScenario.node[40].nic.phy80211p 	busyTime 	0
scalar IntersectionExampleScenario.node[40].nic.mac1609_4 	ReceivedUnicastPackets 	0
scalar IntersectionExampleScenario.node[40].nic.mac1609_4 	ReceivedBroadcasts 	0
scalar IntersectionExampleScenario.node[40].nic.mac1609_4 	SentPackets 	0
scalar IntersectionExampleScenario.node[40].nic.mac1609_4 	SNIRLostPackets 	0
scalar IntersectionExampleScenario.node[40].nic.mac1609_4 	RXTXLostPackets 	0
scalar IntersectionExampleScenario.node[40].nic.mac1609_4 	TotalLostPackets 	0
scalar IntersectionExampleScenario.node[40].nic.mac1609_4 	DroppedPacketsInMac 	0
scalar IntersectionExampleScenario.node[40].nic.mac1609_4 	TooLittleTime 	0
[...]
scalar IntersectionExampleScenario.node[529].veinsmobility 	maxSpeed 	15.64999961853
scalar IntersectionExampleScenario.node[529].veinsmobility 	totalDistance 	293.62499005928
scalar IntersectionExampleScenario.node[529].veinsmobility 	totalCO2Emission 	76.85812794369
scalar IntersectionExampleScenario.node[530].appl 	VehicleRemoved 	0
scalar IntersectionExampleScenario.node[530].appl 	ArrivedAtDest 	0
scalar IntersectionExampleScenario.node[530].appl 	IntersectionEnterTime 	1771.25
scalar IntersectionExampleScenario.node[530].appl 	IntersectionExitTime 	1794.0309397868
scalar IntersectionExampleScenario.node[530].appl 	NumberOfCollisions 	0
scalar IntersectionExampleScenario.node[530].nic.phy80211p 	busyTime 	0
scalar IntersectionExampleScenario.node[530].nic.mac1609_4 	ReceivedUnicastPackets 	0
scalar IntersectionExampleScenario.node[530].nic.mac1609_4 	ReceivedBroadcasts 	0
scalar IntersectionExampleScenario.node[530].nic.mac1609_4 	SentPackets 	0
scalar IntersectionExampleScenario.node[530].nic.mac1609_4 	SNIRLostPackets 	0
scalar IntersectionExampleScenario.node[530].nic.mac1609_4 	RXTXLostPackets 	0
scalar IntersectionExampleScenario.node[530].nic.mac1609_4 	TotalLostPackets 	0
scalar IntersectionExampleScenario.node[530].nic.mac1609_4 	DroppedPacketsInMac 	0
scalar IntersectionExampleScenario.node[530].nic.mac1609_4 	TooLittleTime 	0
scalar IntersectionExampleScenario.node[530].nic.mac1609_4 	TimesIntoBackoff 	0
scalar IntersectionExampleScenario.node[530].nic.mac1609_4 	SlotsBackoff 	0
scalar IntersectionExampleScenario.node[530].nic.mac1609_4 	NumInternalContention 	0
scalar IntersectionExampleScenario.node[530].nic.mac1609_4 	totalBusyTime 	0
scalar IntersectionExampleScenario.node[530].veinsmobility 	startTime 	1771.25
scalar IntersectionExampleScenario.node[530].veinsmobility 	totalTime 	28.75
scalar IntersectionExampleScenario.node[530].veinsmobility 	stopTime 	1800
scalar IntersectionExampleScenario.node[530].veinsmobility 	minSpeed 	5.6500000953674
scalar IntersectionExampleScenario.node[530].veinsmobility 	maxSpeed 	15.64999961853
scalar IntersectionExampleScenario.node[530].veinsmobility 	totalDistance 	399.8667678833
scalar IntersectionExampleScenario.node[530].veinsmobility 	totalCO2Emission 	95.646064881683
scalar IntersectionExampleScenario.node[531].appl 	VehicleRemoved 	0
scalar IntersectionExampleScenario.node[531].appl 	ArrivedAtDest 	0
scalar IntersectionExampleScenario.node[531].appl 	IntersectionEnterTime 	1774.5
scalar IntersectionExampleScenario.node[531].appl 	IntersectionExitTime 	1798.7527060394
scalar IntersectionExampleScenario.node[531].appl 	NumberOfCollisions 	0
scalar IntersectionExampleScenario.node[531].nic.phy80211p 	busyTime 	0
scalar IntersectionExampleScenario.node[531].nic.mac1609_4 	ReceivedUnicastPackets 	0
scalar IntersectionExampleScenario.node[531].nic.mac1609_4 	ReceivedBroadcasts 	0
scalar IntersectionExampleScenario.node[531].nic.mac1609_4 	SentPackets 	0
scalar IntersectionExampleScenario.node[531].nic.mac1609_4 	SNIRLostPackets 	0
scalar IntersectionExampleScenario.node[531].nic.mac1609_4 	RXTXLostPackets 	0
scalar IntersectionExampleScenario.node[531].nic.mac1609_4 	TotalLostPackets 	0
scalar IntersectionExampleScenario.node[531].nic.mac1609_4 	DroppedPacketsInMac 	0
scalar IntersectionExampleScenario.node[531].nic.mac1609_4 	TooLittleTime 	0
scalar IntersectionExampleScenario.node[531].nic.mac1609_4 	TimesIntoBackoff 	0
scalar IntersectionExampleScenario.node[531].nic.mac1609_4 	SlotsBackoff 	0
scalar IntersectionExampleScenario.node[531].nic.mac1609_4 	NumInternalContention 	0
scalar IntersectionExampleScenario.node[531].nic.mac1609_4 	totalBusyTime 	0
scalar IntersectionExampleScenario.node[531].veinsmobility 	startTime 	1774.5
scalar IntersectionExampleScenario.node[531].veinsmobility 	totalTime 	25.5
scalar IntersectionExampleScenario.node[531].veinsmobility 	stopTime 	1800
scalar IntersectionExampleScenario.node[531].veinsmobility 	minSpeed 	5.6500000953674
scalar IntersectionExampleScenario.node[531].veinsmobility 	maxSpeed 	15.64999961853
scalar IntersectionExampleScenario.node[531].veinsmobility 	totalDistance 	327.14729408043
scalar IntersectionExampleScenario.node[531].veinsmobility 	totalCO2Emission 	77.945445721935
scalar IntersectionExampleScenario.node[532].appl 	VehicleRemoved 	0
scalar IntersectionExampleScenario.node[532].appl 	ArrivedAtDest 	0
scalar IntersectionExampleScenario.node[532].appl 	IntersectionEnterTime 	1775
scalar IntersectionExampleScenario.node[532].appl 	IntersectionExitTime 	1798.6197991729
scalar IntersectionExampleScenario.node[532].appl 	NumberOfCollisions 	0
scalar IntersectionExampleScenario.node[532].nic.phy80211p 	busyTime 	0
scalar IntersectionExampleScenario.node[532].nic.mac1609_4 	ReceivedUnicastPackets 	0
scalar IntersectionExampleScenario.node[532].nic.mac1609_4 	ReceivedBroadcasts 	0
scalar IntersectionExampleScenario.node[532].nic.mac1609_4 	SentPackets 	0
scalar IntersectionExampleScenario.node[532].nic.mac1609_4 	SNIRLostPackets 	0
scalar IntersectionExampleScenario.node[532].nic.mac1609_4 	RXTXLostPackets 	0
scalar IntersectionExampleScenario.node[532].nic.mac1609_4 	TotalLostPackets 	0
scalar IntersectionExampleScenario.node[532].nic.mac1609_4 	DroppedPacketsInMac 	0
scalar IntersectionExampleScenario.node[532].nic.mac1609_4 	TooLittleTime 	0
scalar IntersectionExampleScenario.node[532].nic.mac1609_4 	TimesIntoBackoff 	0
scalar IntersectionExampleScenario.node[532].nic.mac1609_4 	SlotsBackoff 	0
scalar IntersectionExampleScenario.node[532].nic.mac1609_4 	NumInternalContention 	0
scalar IntersectionExampleScenario.node[532].nic.mac1609_4 	totalBusyTime 	0
scalar IntersectionExampleScenario.node[532].veinsmobility 	startTime 	1775
scalar IntersectionExampleScenario.node[532].veinsmobility 	totalTime 	25
scalar IntersectionExampleScenario.node[532].veinsmobility 	stopTime 	1800
scalar IntersectionExampleScenario.node[532].veinsmobility 	minSpeed 	5.6500000953674
scalar IntersectionExampleScenario.node[532].veinsmobility 	maxSpeed 	15.64999961853
scalar IntersectionExampleScenario.node[532].veinsmobility 	totalDistance 	317.25376147063
scalar IntersectionExampleScenario.node[532].veinsmobility 	totalCO2Emission 	77.932562340306
scalar IntersectionExampleScenario.node[533].appl 	VehicleRemoved 	0
scalar IntersectionExampleScenario.node[533].appl 	ArrivedAtDest 	0
scalar IntersectionExampleScenario.node[533].appl 	IntersectionEnterTime 	1777.75
scalar IntersectionExampleScenario.node[533].appl 	IntersectionExitTime 	-1
scalar IntersectionExampleScenario.node[533].appl 	NumberOfCollisions 	0
scalar IntersectionExampleScenario.node[533].nic.phy80211p 	busyTime 	0
scalar IntersectionExampleScenario.node[533].nic.mac1609_4 	ReceivedUnicastPackets 	0
scalar IntersectionExampleScenario.node[533].nic.mac1609_4 	ReceivedBroadcasts 	0
scalar IntersectionExampleScenario.node[533].nic.mac1609_4 	SentPackets 	0
scalar IntersectionExampleScenario.node[533].nic.mac1609_4 	SNIRLostPackets 	0
scalar IntersectionExampleScenario.node[533].nic.mac1609_4 	RXTXLostPackets 	0
scalar IntersectionExampleScenario.node[533].nic.mac1609_4 	TotalLostPackets 	0
scalar IntersectionExampleScenario.node[533].nic.mac1609_4 	DroppedPacketsInMac 	0
scalar IntersectionExampleScenario.node[533].nic.mac1609_4 	TooLittleTime 	0
scalar IntersectionExampleScenario.node[533].nic.mac1609_4 	TimesIntoBackoff 	0
scalar IntersectionExampleScenario.node[533].nic.mac1609_4 	SlotsBackoff 	0
scalar IntersectionExampleScenario.node[533].nic.mac1609_4 	NumInternalContention 	0
scalar IntersectionExampleScenario.node[533].nic.mac1609_4 	totalBusyTime 	0
scalar IntersectionExampleScenario.node[533].veinsmobility 	startTime 	1777.75
scalar IntersectionExampleScenario.node[533].veinsmobility 	totalTime 	22.25
scalar IntersectionExampleScenario.node[533].veinsmobility 	stopTime 	1800
scalar IntersectionExampleScenario.node[533].veinsmobility 	minSpeed 	5.6500000953674
scalar IntersectionExampleScenario.node[533].veinsmobility 	maxSpeed 	14.39999961853
scalar IntersectionExampleScenario.node[533].veinsmobility 	totalDistance 	290.89312744141
scalar IntersectionExampleScenario.node[533].veinsmobility 	totalCO2Emission 	66.553234631562
scalar IntersectionExampleScenario.node[534].appl 	VehicleRemoved 	0
scalar IntersectionExampleScenario.node[534].appl 	ArrivedAtDest 	0
scalar IntersectionExampleScenario.node[534].appl 	IntersectionEnterTime 	1780
scalar IntersectionExampleScenario.node[534].appl 	IntersectionExitTime 	-1
scalar IntersectionExampleScenario.node[534].appl 	NumberOfCollisions 	0
scalar IntersectionExampleScenario.node[534].nic.phy80211p 	busyTime 	0
scalar IntersectionExampleScenario.node[534].nic.mac1609_4 	ReceivedUnicastPackets 	0
scalar IntersectionExampleScenario.node[534].nic.mac1609_4 	ReceivedBroadcasts 	0
scalar IntersectionExampleScenario.node[534].nic.mac1609_4 	SentPackets 	0
scalar IntersectionExampleScenario.node[534].nic.mac1609_4 	SNIRLostPackets 	0
scalar IntersectionExampleScenario.node[534].nic.mac1609_4 	RXTXLostPackets 	0
scalar IntersectionExampleScenario.node[534].nic.mac1609_4 	TotalLostPackets 	0
scalar IntersectionExampleScenario.node[534].nic.mac1609_4 	DroppedPacketsInMac 	0
scalar IntersectionExampleScenario.node[534].nic.mac1609_4 	TooLittleTime 	0
scalar IntersectionExampleScenario.node[534].nic.mac1609_4 	TimesIntoBackoff 	0
scalar IntersectionExampleScenario.node[534].nic.mac1609_4 	SlotsBackoff 	0
scalar IntersectionExampleScenario.node[534].nic.mac1609_4 	NumInternalContention 	0
scalar IntersectionExampleScenario.node[534].nic.mac1609_4 	totalBusyTime 	0
scalar IntersectionExampleScenario.node[534].veinsmobility 	startTime 	1780
scalar IntersectionExampleScenario.node[534].veinsmobility 	totalTime 	20
scalar IntersectionExampleScenario.node[534].veinsmobility 	stopTime 	1800
scalar IntersectionExampleScenario.node[534].veinsmobility 	minSpeed 	5.6500000953674
scalar IntersectionExampleScenario.node[534].veinsmobility 	maxSpeed 	14.7514295578
scalar IntersectionExampleScenario.node[534].veinsmobility 	totalDistance 	274.74792480469
scalar IntersectionExampleScenario.node[534].veinsmobility 	totalCO2Emission 	62.49420506093
scalar IntersectionExampleScenario.node[535].appl 	VehicleRemoved 	0
scalar IntersectionExampleScenario.node[535].appl 	ArrivedAtDest 	0
scalar IntersectionExampleScenario.node[535].appl 	IntersectionEnterTime 	1787.25
scalar IntersectionExampleScenario.node[535].appl 	IntersectionExitTime 	-1
scalar IntersectionExampleScenario.node[535].appl 	NumberOfCollisions 	0
scalar IntersectionExampleScenario.node[535].nic.phy80211p 	busyTime 	0
scalar IntersectionExampleScenario.node[535].nic.mac1609_4 	ReceivedUnicastPackets 	0
scalar IntersectionExampleScenario.node[535].nic.mac1609_4 	ReceivedBroadcasts 	0
scalar IntersectionExampleScenario.node[535].nic.mac1609_4 	SentPackets 	0
scalar IntersectionExampleScenario.node[535].nic.mac1609_4 	SNIRLostPackets 	0
scalar IntersectionExampleScenario.node[535].nic.mac1609_4 	RXTXLostPackets 	0
scalar IntersectionExampleScenario.node[535].nic.mac1609_4 	TotalLostPackets 	0
scalar IntersectionExampleScenario.node[535].nic.mac1609_4 	DroppedPacketsInMac 	0
scalar IntersectionExampleScenario.node[535].nic.mac1609_4 	TooLittleTime 	0
scalar IntersectionExampleScenario.node[535].nic.mac1609_4 	TimesIntoBackoff 	0
scalar IntersectionExampleScenario.node[535].nic.mac1609_4 	SlotsBackoff 	0
scalar IntersectionExampleScenario.node[535].nic.mac1609_4 	NumInternalContention 	0
scalar IntersectionExampleScenario.node[535].nic.mac1609_4 	totalBusyTime 	0
scalar IntersectionExampleScenario.node[535].veinsmobility 	startTime 	1787.25
scalar IntersectionExampleScenario.node[535].veinsmobility 	totalTime 	12.75
scalar IntersectionExampleScenario.node[535].veinsmobility 	stopTime 	1800
scalar IntersectionExampleScenario.node[535].veinsmobility 	minSpeed 	5.6500000953674
scalar IntersectionExampleScenario.node[535].veinsmobility 	maxSpeed 	15.64999961853
scalar IntersectionExampleScenario.node[535].veinsmobility 	totalDistance 	176.38089752197
scalar IntersectionExampleScenario.node[535].veinsmobility 	totalCO2Emission 	52.074426969374
scalar IntersectionExampleScenario.node[536].appl 	VehicleRemoved 	0
scalar IntersectionExampleScenario.node[536].appl 	ArrivedAtDest 	0
scalar IntersectionExampleScenario.node[536].appl 	IntersectionEnterTime 	1794.5
scalar IntersectionExampleScenario.node[536].appl 	IntersectionExitTime 	-1
scalar IntersectionExampleScenario.node[536].appl 	NumberOfCollisions 	0
scalar IntersectionExampleScenario.node[536].nic.phy80211p 	busyTime 	0
scalar IntersectionExampleScenario.node[536].nic.mac1609_4 	ReceivedUnicastPackets 	0
scalar IntersectionExampleScenario.node[536].nic.mac1609_4 	ReceivedBroadcasts 	0
scalar IntersectionExampleScenario.node[536].nic.mac1609_4 	SentPackets 	0
scalar IntersectionExampleScenario.node[536].nic.mac1609_4 	SNIRLostPackets 	0
scalar IntersectionExampleScenario.node[536].nic.mac1609_4 	RXTXLostPackets 	0
scalar IntersectionExampleScenario.node[536].nic.mac1609_4 	TotalLostPackets 	0
scalar IntersectionExampleScenario.node[536].nic.mac1609_4 	DroppedPacketsInMac 	0
scalar IntersectionExampleScenario.node[536].nic.mac1609_4 	TooLittleTime 	0
scalar IntersectionExampleScenario.node[536].nic.mac1609_4 	TimesIntoBackoff 	0
scalar IntersectionExampleScenario.node[536].nic.mac1609_4 	SlotsBackoff 	0
scalar IntersectionExampleScenario.node[536].nic.mac1609_4 	NumInternalContention 	0
scalar IntersectionExampleScenario.node[536].nic.mac1609_4 	totalBusyTime 	0
scalar IntersectionExampleScenario.node[536].veinsmobility 	startTime 	1794.5
scalar IntersectionExampleScenario.node[536].veinsmobility 	totalTime 	5.5
scalar IntersectionExampleScenario.node[536].veinsmobility 	stopTime 	1800
scalar IntersectionExampleScenario.node[536].veinsmobility 	minSpeed 	5.6500000953674
scalar IntersectionExampleScenario.node[536].veinsmobility 	maxSpeed 	15.02499961853
scalar IntersectionExampleScenario.node[536].veinsmobility 	totalDistance 	62.317054748535
scalar IntersectionExampleScenario.node[536].veinsmobility 	totalCO2Emission 	32.761728974991
scalar IntersectionExampleScenario.node[537].appl 	VehicleRemoved 	0
scalar IntersectionExampleScenario.node[537].appl 	ArrivedAtDest 	0
scalar IntersectionExampleScenario.node[537].appl 	IntersectionEnterTime 	1796.75
scalar IntersectionExampleScenario.node[537].appl 	IntersectionExitTime 	-1
scalar IntersectionExampleScenario.node[537].appl 	NumberOfCollisions 	0
scalar IntersectionExampleScenario.node[537].nic.phy80211p 	busyTime 	0
scalar IntersectionExampleScenario.node[537].nic.mac1609_4 	ReceivedUnicastPackets 	0
scalar IntersectionExampleScenario.node[537].nic.mac1609_4 	ReceivedBroadcasts 	0
scalar IntersectionExampleScenario.node[537].nic.mac1609_4 	SentPackets 	0
scalar IntersectionExampleScenario.node[537].nic.mac1609_4 	SNIRLostPackets 	0
scalar IntersectionExampleScenario.node[537].nic.mac1609_4 	RXTXLostPackets 	0
scalar IntersectionExampleScenario.node[537].nic.mac1609_4 	TotalLostPackets 	0
scalar IntersectionExampleScenario.node[537].nic.mac1609_4 	DroppedPacketsInMac 	0
scalar IntersectionExampleScenario.node[537].nic.mac1609_4 	TooLittleTime 	0
scalar IntersectionExampleScenario.node[537].nic.mac1609_4 	TimesIntoBackoff 	0
scalar IntersectionExampleScenario.node[537].nic.mac1609_4 	SlotsBackoff 	0
scalar IntersectionExampleScenario.node[537].nic.mac1609_4 	NumInternalContention 	0
scalar IntersectionExampleScenario.node[537].nic.mac1609_4 	totalBusyTime 	0
scalar IntersectionExampleScenario.node[537].veinsmobility 	startTime 	1796.75
scalar IntersectionExampleScenario.node[537].veinsmobility 	totalTime 	3.25
scalar IntersectionExampleScenario.node[537].veinsmobility 	stopTime 	1800
scalar IntersectionExampleScenario.node[537].veinsmobility 	minSpeed 	5.6500000953674
scalar IntersectionExampleScenario.node[537].veinsmobility 	maxSpeed 	13.14999961853
scalar IntersectionExampleScenario.node[537].veinsmobility 	totalDistance 	29.534370422363
scalar IntersectionExampleScenario.node[537].veinsmobility 	totalCO2Emission 	22.582438530969
scalar IntersectionExampleScenario.node[538].appl 	VehicleRemoved 	0
scalar IntersectionExampleScenario.node[538].appl 	ArrivedAtDest 	0
scalar IntersectionExampleScenario.node[538].appl 	IntersectionEnterTime 	1797.75
scalar IntersectionExampleScenario.node[538].appl 	IntersectionExitTime 	-1
scalar IntersectionExampleScenario.node[538].appl 	NumberOfCollisions 	0
scalar IntersectionExampleScenario.node[538].nic.phy80211p 	busyTime 	0
scalar IntersectionExampleScenario.node[538].nic.mac1609_4 	ReceivedUnicastPackets 	0
scalar IntersectionExampleScenario.node[538].nic.mac1609_4 	ReceivedBroadcasts 	0
scalar IntersectionExampleScenario.node[538].nic.mac1609_4 	SentPackets 	0
scalar IntersectionExampleScenario.node[538].nic.mac1609_4 	SNIRLostPackets 	0
scalar IntersectionExampleScenario.node[538].nic.mac1609_4 	RXTXLostPackets 	0
scalar IntersectionExampleScenario.node[538].nic.mac1609_4 	TotalLostPackets 	0
scalar IntersectionExampleScenario.node[538].nic.mac1609_4 	DroppedPacketsInMac 	0
scalar IntersectionExampleScenario.node[538].nic.mac1609_4 	TooLittleTime 	0
scalar IntersectionExampleScenario.node[538].nic.mac1609_4 	TimesIntoBackoff 	0
scalar IntersectionExampleScenario.node[538].nic.mac1609_4 	SlotsBackoff 	0
scalar IntersectionExampleScenario.node[538].nic.mac1609_4 	NumInternalContention 	0
scalar IntersectionExampleScenario.node[538].nic.mac1609_4 	totalBusyTime 	0
scalar IntersectionExampleScenario.node[538].veinsmobility 	startTime 	1797.75
scalar IntersectionExampleScenario.node[538].veinsmobility 	totalTime 	2.25
scalar IntersectionExampleScenario.node[538].veinsmobility 	stopTime 	1800
scalar IntersectionExampleScenario.node[538].veinsmobility 	minSpeed 	5.6500000953674
scalar IntersectionExampleScenario.node[538].veinsmobility 	maxSpeed 	10.64999961853
scalar IntersectionExampleScenario.node[538].veinsmobility 	totalDistance 	17.63436126709
scalar IntersectionExampleScenario.node[538].veinsmobility 	totalCO2Emission 	13.355361796212
scalar IntersectionExampleScenario.node[539].appl 	VehicleRemoved 	0
scalar IntersectionExampleScenario.node[539].appl 	ArrivedAtDest 	0
scalar IntersectionExampleScenario.node[539].appl 	IntersectionEnterTime 	1800
scalar IntersectionExampleScenario.node[539].appl 	IntersectionExitTime 	-1
scalar IntersectionExampleScenario.node[539].appl 	NumberOfCollisions 	0
scalar IntersectionExampleScenario.node[539].nic.phy80211p 	busyTime 	nan
scalar IntersectionExampleScenario.node[539].nic.mac1609_4 	ReceivedUnicastPackets 	0
scalar IntersectionExampleScenario.node[539].nic.mac1609_4 	ReceivedBroadcasts 	0
scalar IntersectionExampleScenario.node[539].nic.mac1609_4 	SentPackets 	0
scalar IntersectionExampleScenario.node[539].nic.mac1609_4 	SNIRLostPackets 	0
scalar IntersectionExampleScenario.node[539].nic.mac1609_4 	RXTXLostPackets 	0
scalar IntersectionExampleScenario.node[539].nic.mac1609_4 	TotalLostPackets 	0
scalar IntersectionExampleScenario.node[539].nic.mac1609_4 	DroppedPacketsInMac 	0
scalar IntersectionExampleScenario.node[539].nic.mac1609_4 	TooLittleTime 	0
scalar IntersectionExampleScenario.node[539].nic.mac1609_4 	TimesIntoBackoff 	0
scalar IntersectionExampleScenario.node[539].nic.mac1609_4 	SlotsBackoff 	0
scalar IntersectionExampleScenario.node[539].nic.mac1609_4 	NumInternalContention 	0
scalar IntersectionExampleScenario.node[539].nic.mac1609_4 	totalBusyTime 	0
scalar IntersectionExampleScenario.node[539].veinsmobility 	startTime 	1800
scalar IntersectionExampleScenario.node[539].veinsmobility 	totalTime 	0
scalar IntersectionExampleScenario.node[539].veinsmobility 	stopTime 	1800
scalar IntersectionExampleScenario.node[539].veinsmobility 	totalDistance 	0
scalar IntersectionExampleScenario.node[539].veinsmobility 	totalCO2Emission 	0
