file 15561223 1591403515                                        
version 2
run nodebug-29-20200605-20:30:01-14344
attr configname nodebug
attr datetime 20200605-20:30:01
attr experiment nodebug
attr inifile omnetpp.ini
attr iterationvars ""
attr iterationvars2 $repetition=29
attr measurement ""
attr network "\"org.car2x.veins.modules.application.ExtTraCIScenarioManagerLaunchd.IntersectionExampleScenario\""
attr processid 14344
attr repetition 29
attr replication #29
attr resultdir results
attr runnumber 29
attr seedset 29
param **.coreDebug false
param **.debug false
param *.**.nic.mac1609_4.bitrate 18Mbps
param *.**.nic.mac1609_4.txPower 20mW
param *.**.nic.mac1609_4.useServiceChannel false
param *.**.nic.phy80211p.analogueModels "xmldoc(\"config.xml\")"
param *.**.nic.phy80211p.decider "xmldoc(\"config.xml\")"
param *.**.nic.phy80211p.sensitivity -89dBm
param *.**.nic.phy80211p.thermalNoise -110dBm
param *.**.nic.phy80211p.usePropagationDelay true
param *.**.nic.phy80211p.useThermalNoise true
param *.annotations.draw false
param *.connectionManager.alpha 2.0
param *.connectionManager.carrierFrequency "5.890e9 Hz"
param *.connectionManager.pMax 20mW
param *.connectionManager.sat -89dBm
param *.connectionManager.sendDirect true
param *.manager.autoShutdown true
param *.manager.host "\"localhost\""
param *.manager.launchConfig "xmldoc(\"paramics.launchd.xml\")"
param *.manager.margin 25
param *.manager.moduleDisplayString "\"\""
param *.manager.moduleName "\"node\""
param *.manager.moduleType "\"org.car2x.veins.nodes.Car\""
param *.manager.port 9999
param *.manager.updateInterval 250ms
param *.node[*0].veinsmobility.accidentCount 0
param *.node[*0].veinsmobility.accidentDuration 30s
param *.node[*0].veinsmobility.accidentStart 75s
param *.node[*].appl.LiderSelectZoneRadio 55.0
param *.node[*].appl.ShareDataZoneRadio 110.0
param *.node[*].appl.TiempoSemaforo 30.0
param *.node[*].appl.beaconInterval 1s
param *.node[*].appl.beaconPriority 3
param *.node[*].appl.dataOnSch false
param *.node[*].appl.dataPriority 2
param *.node[*].appl.debug false
param *.node[*].appl.headerLength "256 bit"
param *.node[*].appl.maxOffset 0.005s
param *.node[*].appl.sendBeacons false
param *.node[*].appl.sendData true
param *.node[*].applType "\"Dummy\""
param *.node[*].mobilityType "\"TraCIMobility\""
param *.node[*].mobilityType.debug true
param *.node[*].veinsmobility.x 0
param *.node[*].veinsmobility.y 0
param *.node[*].veinsmobility.z 1.895
param *.node[*].veinsmobilityType "\"org.car2x.veins.modules.mobility.traci.TraCIMobility\""
param *.node[*].veinsmobilityType.debug true
param *.playgroundSizeX 8500m
param *.playgroundSizeY 8500m
param *.playgroundSizeZ 50m
param *.world.use2D false
param *.world.useTorus false

vector 35380  IntersectionExampleScenario.manager  vehiclesinsim  ETV
attr type  int
vector 35381  IntersectionExampleScenario.manager  realtime  ETV
attr type  int
attr unit  s
vector 35384  IntersectionExampleScenario.node[0].veinsmobility  posx  ETV
vector 35385  IntersectionExampleScenario.node[0].veinsmobility  posy  ETV
vector 35386  IntersectionExampleScenario.node[0].veinsmobility  speed  ETV
vector 35391  IntersectionExampleScenario.node[1].veinsmobility  posx  ETV
vector 35392  IntersectionExampleScenario.node[1].veinsmobility  posy  ETV
vector 35387  IntersectionExampleScenario.node[0].veinsmobility  acceleration  ETV
vector 35388  IntersectionExampleScenario.node[0].veinsmobility  co2emission  ETV
vector 35393  IntersectionExampleScenario.node[1].veinsmobility  speed  ETV
vector 35394  IntersectionExampleScenario.node[1].veinsmobility  acceleration  ETV
vector 35395  IntersectionExampleScenario.node[1].veinsmobility  co2emission  ETV
vector 35398  IntersectionExampleScenario.node[2].veinsmobility  posx  ETV
vector 35399  IntersectionExampleScenario.node[2].veinsmobility  posy  ETV
vector 35400  IntersectionExampleScenario.node[2].veinsmobility  speed  ETV
vector 35401  IntersectionExampleScenario.node[2].veinsmobility  acceleration  ETV
vector 35402  IntersectionExampleScenario.node[2].veinsmobility  co2emission  ETV
vector 35405  IntersectionExampleScenario.node[3].veinsmobility  posx  ETV
vector 35406  IntersectionExampleScenario.node[3].veinsmobility  posy  ETV
vector 35407  IntersectionExampleScenario.node[3].veinsmobility  speed  ETV
vector 35408  IntersectionExampleScenario.node[3].veinsmobility  acceleration  ETV
vector 35409  IntersectionExampleScenario.node[3].veinsmobility  co2emission  ETV
vector 35412  IntersectionExampleScenario.node[4].veinsmobility  posx  ETV
vector 35413  IntersectionExampleScenario.node[4].veinsmobility  posy  ETV
vector 35414  IntersectionExampleScenario.node[4].veinsmobility  speed  ETV
vector 35415  IntersectionExampleScenario.node[4].veinsmobility  acceleration  ETV
vector 35416  IntersectionExampleScenario.node[4].veinsmobility  co2emission  ETV
vector 35419  IntersectionExampleScenario.node[5].veinsmobility  posx  ETV
vector 35420  IntersectionExampleScenario.node[5].veinsmobility  posy  ETV
vector 35421  IntersectionExampleScenario.node[5].veinsmobility  speed  ETV
vector 35422  IntersectionExampleScenario.node[5].veinsmobility  acceleration  ETV
vector 35423  IntersectionExampleScenario.node[5].veinsmobility  co2emission  ETV
vector 35426  IntersectionExampleScenario.node[6].veinsmobility  posx  ETV
vector 35427  IntersectionExampleScenario.node[6].veinsmobility  posy  ETV
vector 35428  IntersectionExampleScenario.node[6].veinsmobility  speed  ETV
vector 35429  IntersectionExampleScenario.node[6].veinsmobility  acceleration  ETV
vector 35430  IntersectionExampleScenario.node[6].veinsmobility  co2emission  ETV
vector 35433  IntersectionExampleScenario.node[7].veinsmobility  posx  ETV
vector 35434  IntersectionExampleScenario.node[7].veinsmobility  posy  ETV
vector 35435  IntersectionExampleScenario.node[7].veinsmobility  speed  ETV
vector 35440  IntersectionExampleScenario.node[8].veinsmobility  posx  ETV
vector 35441  IntersectionExampleScenario.node[8].veinsmobility  posy  ETV
vector 35436  IntersectionExampleScenario.node[7].veinsmobility  acceleration  ETV
vector 35437  IntersectionExampleScenario.node[7].veinsmobility  co2emission  ETV
vector 35442  IntersectionExampleScenario.node[8].veinsmobility  speed  ETV
vector 35443  IntersectionExampleScenario.node[8].veinsmobility  acceleration  ETV
vector 35444  IntersectionExampleScenario.node[8].veinsmobility  co2emission  ETV
35395	6500 4781 44 1155 7.75 46.5 156 0.973 12.099024792222 517.37835945647 3003.4060516599
35394	11281 4501 44 1155 7.75 46.5 156 -3.4799156188965 2.5 40.038900375366 302.93197667599
35393	15782 4683 39 1155 7.5 46.5 157 5.6500000953674 16.27499961853 2177.531452179 31700.575766228
35392	20465 5033 34 1155 7.25 46.5 158 486.85000610352 731.59959411621 84805.979980469 46406498.045001
35391	25498 5024 34 1155 7.25 46.5 158 486.85000610352 785.82187652588 90491.108894348 53542308.505041
vector 35447  IntersectionExampleScenario.node[9].veinsmobility  posx  ETV
vector 35448  IntersectionExampleScenario.node[9].veinsmobility  posy  ETV
vector 35449  IntersectionExampleScenario.node[9].veinsmobility  speed  ETV
vector 35450  IntersectionExampleScenario.node[9].veinsmobility  acceleration  ETV
vector 35451  IntersectionExampleScenario.node[9].veinsmobility  co2emission  ETV
vector 35454  IntersectionExampleScenario.node[10].veinsmobility  posx  ETV
vector 35455  IntersectionExampleScenario.node[10].veinsmobility  posy  ETV
vector 35461  IntersectionExampleScenario.node[11].veinsmobility  posx  ETV
vector 35462  IntersectionExampleScenario.node[11].veinsmobility  posy  ETV
vector 35456  IntersectionExampleScenario.node[10].veinsmobility  speed  ETV
vector 35457  IntersectionExampleScenario.node[10].veinsmobility  acceleration  ETV
vector 35458  IntersectionExampleScenario.node[10].veinsmobility  co2emission  ETV
vector 35463  IntersectionExampleScenario.node[11].veinsmobility  speed  ETV
vector 35464  IntersectionExampleScenario.node[11].veinsmobility  acceleration  ETV
vector 35465  IntersectionExampleScenario.node[11].veinsmobility  co2emission  ETV
35388	31720 5348 34 1499 7.25 51.25 177 0.973 11.648172402475 543.93155260613 2881.7914728475
35387	37068 5052 34 1499 7.25 51.25 177 -8.4908542633057 4 38.001859664917 488.16021245119
35386	42120 5237 31 1499 7 51.25 178 0 15.64999961853 2172.5753586292 30408.735714519
35385	47357 5723 28 1499 6.75 51.25 179 486.63604736328 785.82187652588 101241.10974884 59087231.326487
35384	53080 5665 28 1499 6.75 51.25 179 237.98760986328 483.14999389648 78328.019714355 35232518.18446
vector 35468  IntersectionExampleScenario.node[12].veinsmobility  posx  ETV
vector 35469  IntersectionExampleScenario.node[12].veinsmobility  posy  ETV
vector 35470  IntersectionExampleScenario.node[12].veinsmobility  speed  ETV
vector 35471  IntersectionExampleScenario.node[12].veinsmobility  acceleration  ETV
vector 35472  IntersectionExampleScenario.node[12].veinsmobility  co2emission  ETV
vector 35475  IntersectionExampleScenario.node[13].veinsmobility  posx  ETV
vector 35476  IntersectionExampleScenario.node[13].veinsmobility  posy  ETV
vector 35477  IntersectionExampleScenario.node[13].veinsmobility  speed  ETV
vector 35478  IntersectionExampleScenario.node[13].veinsmobility  acceleration  ETV
vector 35479  IntersectionExampleScenario.node[13].veinsmobility  co2emission  ETV
vector 35482  IntersectionExampleScenario.node[14].veinsmobility  posx  ETV
vector 35483  IntersectionExampleScenario.node[14].veinsmobility  posy  ETV
vector 35484  IntersectionExampleScenario.node[14].veinsmobility  speed  ETV
vector 35485  IntersectionExampleScenario.node[14].veinsmobility  acceleration  ETV
vector 35486  IntersectionExampleScenario.node[14].veinsmobility  co2emission  ETV
vector 35489  IntersectionExampleScenario.node[15].veinsmobility  posx  ETV
vector 35490  IntersectionExampleScenario.node[15].veinsmobility  posy  ETV
vector 35491  IntersectionExampleScenario.node[15].veinsmobility  speed  ETV
vector 35492  IntersectionExampleScenario.node[15].veinsmobility  acceleration  ETV
vector 35493  IntersectionExampleScenario.node[15].veinsmobility  co2emission  ETV
35402	60349 5013 433 2718 27 66.5 159 0.973 11.648172402475 506.17487215982 2756.0795249177
35401	65362 4655 433 2718 27 66.5 159 -3.1710205078125 2.5 38.171613693237 275.87800448508
35400	70017 5033 426 2718 26.75 66.5 160 5.6500000953674 15.64999961853 2217.1517219543 31704.274027728
35399	75050 5244 419 2718 26.5 66.5 161 483.14999389648 483.14999389648 77787.149017334 37582860.57295
35398	80294 5203 419 2718 26.5 66.5 161 184.17810058594 733.66014099121 72327.47354126 36648998.560226
35409	85497 4775 554 2896 31.5 68.75 150 0.96333723109819 12.099024792222 483.67957891873 2736.7556920032
35408	90272 4443 554 2896 31.5 68.75 150 -3.4488220214844 2.5 40.208654403687 215.41585690974
35407	94715 4696 547 2896 31.25 68.75 151 5.6500000953674 16.27499961853 2211.3263587952 33126.279331206
35406	99411 4965 540 2896 31 68.75 152 486.85000610352 486.85000610352 74001.200927734 36027485.123335
35405	104376 4934 540 2896 31 68.75 152 238.3134765625 785.82187652588 79462.497550964 45556961.624971
vector 35496  IntersectionExampleScenario.node[16].veinsmobility  posx  ETV
vector 35497  IntersectionExampleScenario.node[16].veinsmobility  posy  ETV
vector 35498  IntersectionExampleScenario.node[16].veinsmobility  speed  ETV
vector 35499  IntersectionExampleScenario.node[16].veinsmobility  acceleration  ETV
vector 35500  IntersectionExampleScenario.node[16].veinsmobility  co2emission  ETV
vector 35503  IntersectionExampleScenario.node[17].veinsmobility  posx  ETV
vector 35504  IntersectionExampleScenario.node[17].veinsmobility  posy  ETV
vector 35505  IntersectionExampleScenario.node[17].veinsmobility  speed  ETV
vector 35506  IntersectionExampleScenario.node[17].veinsmobility  acceleration  ETV
vector 35507  IntersectionExampleScenario.node[17].veinsmobility  co2emission  ETV
vector 35510  IntersectionExampleScenario.node[18].veinsmobility  posx  ETV
vector 35511  IntersectionExampleScenario.node[18].veinsmobility  posy  ETV
vector 35512  IntersectionExampleScenario.node[18].veinsmobility  speed  ETV
vector 35513  IntersectionExampleScenario.node[18].veinsmobility  acceleration  ETV
vector 35514  IntersectionExampleScenario.node[18].veinsmobility  co2emission  ETV
35416	110513 5866 593 3957 32.75 81.75 197 0.973 12.099024792222 584.24957379842 3223.55589263
35415	116379 5550 593 3957 32.75 81.75 197 -7.8776445388794 4 40.038900375366 513.03881719338
35414	121929 5739 584 3957 32.5 81.75 198 0 16.27499961853 2205.5864975452 32071.414867027
35413	127668 6497 575 3957 32.25 81.75 199 238.29949951172 785.82187652588 102911.11850739 57263435.962409
35412	134165 6523 575 3957 32.25 81.75 199 483.14999389648 483.14999389648 96146.8487854 46453349.403832
35423	140688 5551 738 3976 37.25 82 180 0.973 11.810082123732 561.9499259185 3043.7444710552
35422	146239 5051 738 3976 37.25 82 180 -6.9388580322266 4 39.869146347046 481.49561179219
35421	151290 5407 729 3976 37 82 181 0 15.875 2183.3810305595 31318.381281911
35420	156697 5955 720 3976 36.75 82 182 184.17810058594 483.36395263672 73999.134460449 31919382.509393
35419	162652 5907 720 3976 36.75 82 182 486.85000610352 734.37205505371 96681.46144104 52327980.518652
35430	168559 5544 823 4081 39.5 83.5 177 0.973 11.54047740176 537.61845167176 2786.741373604
35429	174103 5145 823 4081 39.5 83.5 177 -4.5 2.5000009536743 37.32285118103 377.21621508241
35428	179248 5679 812 4081 39.25 83.5 178 2.1749446392059 15.5 2286.0590629578 31750.107945723
35427	184927 5811 801 4081 39 83.5 179 167.29217529297 734.13624572754 79234.336044312 39678820.417033
35426	190738 5887 801 4081 39 83.5 179 486.85000610352 486.85000610352 87146.151092529 42427104.191296
vector 35517  IntersectionExampleScenario.node[19].veinsmobility  posx  ETV
vector 35518  IntersectionExampleScenario.node[19].veinsmobility  posy  ETV
vector 35524  IntersectionExampleScenario.node[20].veinsmobility  posx  ETV
vector 35525  IntersectionExampleScenario.node[20].veinsmobility  posy  ETV
vector 35519  IntersectionExampleScenario.node[19].veinsmobility  speed  ETV
vector 35520  IntersectionExampleScenario.node[19].veinsmobility  acceleration  ETV
vector 35521  IntersectionExampleScenario.node[19].veinsmobility  co2emission  ETV
vector 35526  IntersectionExampleScenario.node[20].veinsmobility  speed  ETV
vector 35527  IntersectionExampleScenario.node[20].veinsmobility  acceleration  ETV
vector 35528  IntersectionExampleScenario.node[20].veinsmobility  co2emission  ETV
vector 35531  IntersectionExampleScenario.node[21].veinsmobility  posx  ETV
vector 35532  IntersectionExampleScenario.node[21].veinsmobility  posy  ETV
vector 35533  IntersectionExampleScenario.node[21].veinsmobility  speed  ETV
vector 35534  IntersectionExampleScenario.node[21].veinsmobility  acceleration  ETV
vector 35535  IntersectionExampleScenario.node[21].veinsmobility  co2emission  ETV
35458	197828 5211 1378 4519 49.75 90 162 0.973 11.200708441096 476.52636254327 2372.1215779625
35457	203039 4654 1378 4519 49.75 90 162 -3.2470817565918 2.5 35.964826583862 213.14302812485
35456	207693 5106 1357 4519 49.5 90 163 5.6500000953674 15.02499961853 2211.394733429 30760.821906422
35455	212799 5405 1338 4519 49.25 90 164 482.92657470703 785.82187652588 93719.542686462 55370203.719173
35454	218204 5400 1338 4519 49.25 90 164 483.14999389648 734.37016296387 88050.433029175 48276675.337013
35472	223604 5036 1560 4594 52 91.25 158 0.973 11.648172402475 508.77767279043 2717.6957746777
35471	228640 4752 1560 4594 52 91.25 158 -3.8633232116699 2.5 39.020376205444 280.93993581907
35470	233392 4943 1539 4594 51.75 91.25 159 5.6500000953674 15.64999961853 2177.4415655136 31214.496153112
35469	238335 5252 1518 4594 51.5 91.25 160 184.17810058594 483.16455078125 63567.950592041 26987591.558494
35468	243587 5272 1518 4594 51.5 91.25 160 486.85000610352 731.63845825195 85908.820861816 47027710.713211
vector 35538  IntersectionExampleScenario.node[22].veinsmobility  posx  ETV
vector 35539  IntersectionExampleScenario.node[22].veinsmobility  posy  ETV
vector 35540  IntersectionExampleScenario.node[22].veinsmobility  speed  ETV
vector 35541  IntersectionExampleScenario.node[22].veinsmobility  acceleration  ETV
vector 35542  IntersectionExampleScenario.node[22].veinsmobility  co2emission  ETV
vector 35545  IntersectionExampleScenario.node[23].veinsmobility  posx  ETV
vector 35546  IntersectionExampleScenario.node[23].veinsmobility  posy  ETV
vector 35547  IntersectionExampleScenario.node[23].veinsmobility  speed  ETV
vector 35548  IntersectionExampleScenario.node[23].veinsmobility  acceleration  ETV
vector 35549  IntersectionExampleScenario.node[23].veinsmobility  co2emission  ETV
vector 35552  IntersectionExampleScenario.node[24].veinsmobility  posx  ETV
vector 35553  IntersectionExampleScenario.node[24].veinsmobility  posy  ETV
vector 35559  IntersectionExampleScenario.node[25].veinsmobility  posx  ETV
vector 35560  IntersectionExampleScenario.node[25].veinsmobility  posy  ETV
vector 35554  IntersectionExampleScenario.node[24].veinsmobility  speed  ETV
vector 35555  IntersectionExampleScenario.node[24].veinsmobility  acceleration  ETV
vector 35556  IntersectionExampleScenario.node[24].veinsmobility  co2emission  ETV
vector 35561  IntersectionExampleScenario.node[25].veinsmobility  speed  ETV
vector 35562  IntersectionExampleScenario.node[25].veinsmobility  acceleration  ETV
vector 35563  IntersectionExampleScenario.node[25].veinsmobility  co2emission  ETV
35437	250463 6368 1080 5116 45.25 98.25 213 0.973 11.648172402475 585.02391236005 2970.7420355118
35436	256831 5837 1080 5116 45.25 98.25 213 -7.0929417610168 4 38.341367721558 482.03536989279
35435	262668 6157 1067 5116 45 98.25 214 0 15.64999961853 2212.6930657625 31413.159395651
35434	268825 7095 1054 5116 44.75 98.25 215 483.14999389648 483.14999389648 103877.24868774 50188292.069467
35433	275920 7062 1054 5116 44.75 98.25 215 184.17810058594 733.41819763184 97790.851638794 48644255.761189
35444	282982 6432 1110 5173 45.75 99 214 0.973 11.200708441096 561.91722153575 2656.2919813284
35443	289414 5822 1110 5173 45.75 99 214 -6.8640689849854 4 35.625318527222 445.86479464531
35442	295236 6214 1095 5173 45.5 99 215 0 15.02499961853 2184.6829628944 29567.904340929
35441	301450 7062 1080 5173 45.25 99 216 486.85000610352 735.00680541992 113833.9135437 61075418.980137
35440	308512 7122 1080 5173 45.25 99 216 486.63604736328 785.82187652588 119972.5404129 68622895.617648
35451	315634 6748 1219 5306 47.5 100.75 214 0.973 11.200708441096 591.26247776103 2770.7757410413
35450	322382 6659 1219 5306 47.5 100.75 214 -4.5 2.5 38.680875778198 418.87774614663
35449	329041 6846 1202 5306 47.25 100.75 215 0 15.370059013367 2265.9132384174 31430.801706981
35448	335887 7125 1185 5306 47 100.75 216 486.85000610352 734.31074523926 113398.05929565 60571187.674108
35447	343012 7120 1185 5306 47 100.75 216 486.85000610352 805.05782318115 121635.27183533 70745807.334217
35465	350132 6473 1399 5426 50 102.5 211 0.973 11.54047740176 573.65653521961 2820.1449123623
35464	356605 6416 1399 5426 50 102.5 211 -3.6708750724792 2.5 37.32285118103 350.09362531892
35463	363021 6822 1378 5426 49.75 102.5 212 0 15.5 2318.7991183735 31286.401039766
35462	369843 7040 1357 5426 49.5 102.5 213 486.85000610352 486.85000610352 103699.05130005 50485883.758357
35461	376883 7001 1357 5426 49.5 102.5 213 236.02459716797 811.03360748291 112833.62733459 64582664.368109
35479	383884 5111 2355 5443 62.25 102.75 163 0.973 11.648172402475 552.09149136853 3367.1297902826
35478	388995 4904 2355 5443 62.25 102.75 163 -3.4558925628662 2.5 37.832105636597 352.08122142571
35477	393899 5111 2334 5443 62 102.75 164 5.6500000953674 15.64999961853 2176.776248455 30184.582461987
35476	399010 5453 2313 5443 61.75 102.75 165 238.45648193359 483.14999389648 71575.418334961 31971587.400659
35475	404463 5436 2313 5443 61.75 102.75 165 184.17810058594 483.14999389648 65598.35067749 27825738.753395
35486	409899 5268 2652 5715 65.75 106.75 165 0.973 11.36141391502 498.03512311749 2616.3515341436
35485	415167 5137 2652 5715 65.75 106.75 165 -3.1792087554932 2.5 37.32285118103 250.19065545799
35484	420304 5188 2630 5715 65.5 106.75 166 5.6500000953674 15.25 2227.9617276192 31175.995862325
35483	425492 5512 2607 5715 65.25 106.75 167 235.38415527344 483.14999389648 72268.034759521 32235443.23062
35482	431004 5516 2607 5715 65.25 106.75 167 174.53436279297 483.14999389648 65838.880462646 27868945.558273
vector 35566  IntersectionExampleScenario.node[26].veinsmobility  posx  ETV
vector 35567  IntersectionExampleScenario.node[26].veinsmobility  posy  ETV
vector 35568  IntersectionExampleScenario.node[26].veinsmobility  speed  ETV
vector 35569  IntersectionExampleScenario.node[26].veinsmobility  acceleration  ETV
vector 35570  IntersectionExampleScenario.node[26].veinsmobility  co2emission  ETV
vector 35573  IntersectionExampleScenario.node[27].veinsmobility  posx  ETV
vector 35574  IntersectionExampleScenario.node[27].veinsmobility  posy  ETV
vector 35575  IntersectionExampleScenario.node[27].veinsmobility  speed  ETV
vector 35576  IntersectionExampleScenario.node[27].veinsmobility  acceleration  ETV
vector 35577  IntersectionExampleScenario.node[27].veinsmobility  co2emission  ETV
35493	437322 5792 2718 6173 66.5 113 187 0.973 11.90022389248 572.25897800749 3098.4471288201
35492	443114 5285 2718 6173 66.5 113 187 -6.9388580322266 4 39.869146347046 486.92859168984
35491	448399 5673 2696 6173 66.25 113 188 0 16 2219.9751734734 32151.358126084
35490	454072 6262 2673 6173 66 113 189 184.17810058594 735.07762145996 85590.028381348 42883890.323929
35489	460334 6288 2673 6173 66 113 189 486.85000610352 486.85000610352 92014.651153564 44797333.475726
35500	466622 5504 3033 6209 70.5 113.5 173 0.973 11.450879080643 535.72709544667 2818.7500462176
35499	472126 5406 3033 6209 70.5 113.5 173 -8.3387508392334 4 36.98334312439 483.65309401936
35498	477532 5477 3012 6209 70.25 113.5 174 0 15.375 2208.0573849678 30760.221990854
35497	483009 5820 2991 6209 70 113.5 175 237.32635498047 785.82187652588 90874.478858948 51393096.673583
35496	488829 5829 2991 6209 70 113.5 175 483.14999389648 483.14999389648 84551.248931885 40850935.40538
vector 35580  IntersectionExampleScenario.node[28].veinsmobility  posx  ETV
vector 35581  IntersectionExampleScenario.node[28].veinsmobility  posy  ETV
vector 35582  IntersectionExampleScenario.node[28].veinsmobility  speed  ETV
vector 35587  IntersectionExampleScenario.node[29].veinsmobility  posx  ETV
vector 35588  IntersectionExampleScenario.node[29].veinsmobility  posy  ETV
vector 35583  IntersectionExampleScenario.node[28].veinsmobility  acceleration  ETV
vector 35584  IntersectionExampleScenario.node[28].veinsmobility  co2emission  ETV
vector 35589  IntersectionExampleScenario.node[29].veinsmobility  speed  ETV
vector 35590  IntersectionExampleScenario.node[29].veinsmobility  acceleration  ETV
vector 35591  IntersectionExampleScenario.node[29].veinsmobility  co2emission  ETV
35514	495460 5119 3580 6427 77.25 117.25 161 0.973 11.810082123732 572.79177313527 3638.7214029312
35513	500579 4887 3580 6427 77.25 117.25 161 -3.8370189666748 2.5 39.529638290405 390.5411317582
35512	505466 5085 3559 6427 77 117.25 162 5.6500000953674 15.875 2184.6559004784 30888.929467048
35511	510551 5422 3538 6427 76.75 117.25 163 184.17810058594 483.14999389648 64788.293609619 27479846.772377
35510	515973 5443 3538 6427 76.75 117.25 163 486.85000610352 733.3829498291 87405.682327271 47790734.902137
vector 35594  IntersectionExampleScenario.node[30].veinsmobility  posx  ETV
vector 35595  IntersectionExampleScenario.node[30].veinsmobility  posy  ETV
vector 35596  IntersectionExampleScenario.node[30].veinsmobility  speed  ETV
vector 35597  IntersectionExampleScenario.node[30].veinsmobility  acceleration  ETV
vector 35598  IntersectionExampleScenario.node[30].veinsmobility  co2emission  ETV
35535	521817 5135 4469 6991 89.25 128 156 0.973 11.648172402475 493.90664985485 2648.9493700567
35534	526952 4518 4469 6991 89.25 128 156 -3.4680404663086 2.5 38.850629806519 242.6620583105
35533	531470 5005 4452 6991 89 128 157 5.6500000953674 15.64999961853 2207.15736866 31975.52612511
35532	536475 5301 4435 6991 88.75 128 158 184.17810058594 486.87796020508 62869.884368896 26783508.367452
35531	541776 5312 4435 6991 88.75 128 158 236.89532470703 486.85000610352 68582.60534668 30717610.839312
35521	547088 5714 4152 7046 84.5 129.25 180 0.973 11.648172402475 553.43098297256 2951.4099045478
35520	552802 5478 4152 7046 84.5 129.25 180 -7.2593860626221 4 38.511121749878 476.89940667911
35519	558280 5647 4133 7046 84.25 129.25 181 0 15.64999961853 2214.512909174 31481.264621608
35518	563927 6123 4115 7046 84 129.25 182 483.14999389648 483.14999389648 87933.29888916 42484972.821595
35517	570050 6096 4115 7046 84 129.25 182 184.17810058594 733.9766998291 82257.660446167 41335717.209644
35507	576146 6697 3343 7046 74.25 129.25 221 0.97223939240464 11.648172402475 598.56195915442 3001.7655650439
35506	582843 6047 3343 7046 74.25 129.25 221 -30.537746429443 4 38.680875778198 1315.4300808077
35505	588890 6315 3322 7046 74 129.25 222 0 15.64999961853 2205.3434333801 31760.645770142
35504	595205 7472 3301 7046 73.75 129.25 223 236.21789550781 486.85000610352 100164.59335327 46077161.566514
35503	602677 7464 3301 7046 73.75 129.25 223 483.14999389648 785.82187652588 122786.94950104 69627023.28748
35528	610141 6039 4171 7134 84.75 131.25 187 0.973 11.175917330687 551.59883397925 2623.5444185915
35527	616180 5733 4171 7134 84.75 131.25 187 -4.5 2.5 37.15309715271 395.27695872238
35526	621913 6156 4152 7134 84.5 131.25 188 1.1106426715851 15.056646347046 2279.4634282589 30903.102049105
35525	628069 6359 4133 7134 84.25 131.25 189 237.41265869141 483.14999389648 83014.419464111 37454327.988749
35524	634428 6335 4133 7134 84.25 131.25 189 159.76721191406 483.16735839844 74299.520721436 31500012.39544
vector 35601  IntersectionExampleScenario.node[31].veinsmobility  posx  ETV
vector 35602  IntersectionExampleScenario.node[31].veinsmobility  posy  ETV
vector 35603  IntersectionExampleScenario.node[31].veinsmobility  speed  ETV
35549	640995 5076 4800 7219 94.25 133.25 157 0.97223939240464 11.648172402475 522.48461225037 3139.5180655429
35548	646071 4789 4800 7219 94.25 133.25 157 -3.0769233703613 2.5 38.680875778198 266.71376422132
35547	650860 5117 4781 7219 94 133.25 158 5.6500000953674 15.64999961853 2218.4970846176 31847.854174089
35546	655977 5381 4762 7219 93.75 133.25 159 483.14999389648 483.14999389648 76820.849029541 37115992.739745
35545	661358 5349 4762 7219 93.75 133.25 159 184.17810058594 733.65760803223 71142.045471191 35974473.179391
vector 35604  IntersectionExampleScenario.node[31].veinsmobility  acceleration  ETV
vector 35605  IntersectionExampleScenario.node[31].veinsmobility  co2emission  ETV
vector 35608  IntersectionExampleScenario.node[32].veinsmobility  posx  ETV
vector 35609  IntersectionExampleScenario.node[32].veinsmobility  posy  ETV
vector 35610  IntersectionExampleScenario.node[32].veinsmobility  speed  ETV
vector 35611  IntersectionExampleScenario.node[32].veinsmobility  acceleration  ETV
vector 35612  IntersectionExampleScenario.node[32].veinsmobility  co2emission  ETV
35556	667277 5407 5015 7407 97 137.5 163 0.973 11.200708441096 461.10564229382 2203.4546542996
35555	672684 5297 5015 7407 97 137.5 163 -3.0106163024902 2.5 35.795072555542 166.18007295535
35554	677981 5344 4992 7407 96.75 137.5 164 5.6500000953674 15.02499961853 2270.8628988266 31956.825366485
35553	683325 5596 4971 7407 96.5 137.5 165 483.14999389648 483.14999389648 79719.74899292 38516596.239358
35552	688921 5542 4971 7407 96.5 137.5 165 169.95465087891 732.77885437012 72987.431610107 36872936.538088
35563	694463 5531 5038 7495 97.25 139.5 170 0.973 11.810082123732 536.42405305809 2768.7820833996
35562	699994 5509 5038 7495 97.25 139.5 170 -4.0241279602051 2.5 38.680875778198 282.78391803847
35561	705503 5481 5015 7495 97 139.5 171 5.6500000953674 15.875 2315.3479681015 32816.905086893
35560	710984 5823 4992 7495 96.75 139.5 172 235.59381103516 483.14999389648 74887.654693604 33565782.265494
35559	716807 5820 4992 7495 96.75 139.5 172 152.65545654297 483.33911132812 65751.281616211 27474193.017557
vector 35615  IntersectionExampleScenario.node[33].veinsmobility  posx  ETV
vector 35616  IntersectionExampleScenario.node[33].veinsmobility  posy  ETV
vector 35617  IntersectionExampleScenario.node[33].veinsmobility  speed  ETV
vector 35618  IntersectionExampleScenario.node[33].veinsmobility  acceleration  ETV
vector 35619  IntersectionExampleScenario.node[33].veinsmobility  co2emission  ETV
35542	723028 6547 4643 7709 92 144.5 211 0.973 11.36141391502 594.03314607569 3022.9273538083
35541	729575 5963 4643 7709 92 144.5 211 -6.9767079353333 4 37.15309715271 498.83080105633
35540	735538 6341 4626 7709 91.75 144.5 212 0 15.25 2233.5326148272 30810.734389287
35539	741879 7187 4609 7709 91.5 144.5 213 169.95465087891 483.36395263672 87056.57711792 37784116.934676
35538	749066 7146 4609 7709 91.5 144.5 213 486.85000610352 733.15849304199 112036.38977051 59969684.886008
35570	756212 5121 5940 7862 110 148.75 156 0.973 12.099024792222 519.1732516405 3010.8909347161
35569	761333 4852 5940 7862 110 148.75 156 -3.3001289367676 2.5 40.378400802612 295.58409977754
35568	766185 5012 5921 7862 109.75 148.75 157 5.6500000953674 16.27499961853 2181.9523391724 31860.576198943
35567	771197 5360 5902 7862 109.5 148.75 158 486.81158447266 785.82187652588 90460.5573349 53506899.976932
35566	776557 5371 5902 7862 109.5 148.75 158 237.35736083984 483.14999389648 68426.106201172 30527759.339738
35577	781928 5388 6077 8006 111.75 152.75 165 0.973 11.648172402475 508.51918424638 2737.2477858299
35576	787316 5058 6077 8006 111.75 152.75 165 -3.3048114776611 2.5 38.171613693237 261.83384640791
35575	792374 5341 6056 8006 111.5 152.75 166 5.6500000953674 15.64999961853 2258.5020222664 32060.748102883
35574	797715 5666 6035 8006 111.25 152.75 167 486.85000610352 805.05782318115 96850.573394775 58211018.727035
35573	803381 5669 6035 8006 111.25 152.75 167 237.47521972656 483.14999389648 72519.633300781 32425781.057465
35584	809050 5130 6376 8105 116.5 155.5 157 0.973 11.648172402475 480.36122661048 2643.6154272628
35583	814180 5094 6376 8105 116.5 155.5 157 -3.5941886901855 2.5 38.001859664917 207.16951548178
35582	819274 5138 6361 8105 116.25 155.5 158 5.6500000953674 15.718744277954 2255.5150537491 32826.601531858
35581	824412 5394 6346 8105 116 155.5 159 237.07672119141 795.93450164795 83683.582740784 48416588.767963
35580	829806 5405 6346 8105 116 155.5 159 483.14999389648 483.14999389648 76820.849029541 37115992.739745
vector 35622  IntersectionExampleScenario.node[34].veinsmobility  posx  ETV
vector 35623  IntersectionExampleScenario.node[34].veinsmobility  posy  ETV
vector 35624  IntersectionExampleScenario.node[34].veinsmobility  speed  ETV
vector 35625  IntersectionExampleScenario.node[34].veinsmobility  acceleration  ETV
vector 35626  IntersectionExampleScenario.node[34].veinsmobility  co2emission  ETV
vector 35629  IntersectionExampleScenario.node[35].veinsmobility  posx  ETV
vector 35630  IntersectionExampleScenario.node[35].veinsmobility  posy  ETV
vector 35631  IntersectionExampleScenario.node[35].veinsmobility  speed  ETV
vector 35632  IntersectionExampleScenario.node[35].veinsmobility  acceleration  ETV
vector 35633  IntersectionExampleScenario.node[35].veinsmobility  co2emission  ETV
vector 35636  IntersectionExampleScenario.node[36].veinsmobility  posx  ETV
vector 35637  IntersectionExampleScenario.node[36].veinsmobility  posy  ETV
35591	836167 5585 6410 8290 117 160 173 0.973 11.90022389248 557.03040992329 3078.8749196542
35590	841752 5231 6410 8290 117 160 173 -7.2641463279724 4 39.699392318726 488.74823969018
35589	846983 5533 6393 8290 116.75 160 174 0 16 2217.2995821238 32035.833704362
35588	852516 5949 6376 8290 116.5 160 175 483.14999389648 483.14999389648 84551.248931885 40850935.40538
35587	858465 5919 6376 8290 116.5 160 175 184.17810058594 734.53973388672 78953.394348145 39735313.757536
vector 35638  IntersectionExampleScenario.node[36].veinsmobility  speed  ETV
vector 35639  IntersectionExampleScenario.node[36].veinsmobility  acceleration  ETV
vector 35640  IntersectionExampleScenario.node[36].veinsmobility  co2emission  ETV
vector 35643  IntersectionExampleScenario.node[37].veinsmobility  posx  ETV
vector 35644  IntersectionExampleScenario.node[37].veinsmobility  posy  ETV
vector 35645  IntersectionExampleScenario.node[37].veinsmobility  speed  ETV
vector 35646  IntersectionExampleScenario.node[37].veinsmobility  acceleration  ETV
vector 35647  IntersectionExampleScenario.node[37].veinsmobility  co2emission  ETV
vector 35650  IntersectionExampleScenario.node[38].veinsmobility  posx  ETV
vector 35651  IntersectionExampleScenario.node[38].veinsmobility  posy  ETV
vector 35652  IntersectionExampleScenario.node[38].veinsmobility  speed  ETV
vector 35653  IntersectionExampleScenario.node[38].veinsmobility  acceleration  ETV
vector 35654  IntersectionExampleScenario.node[38].veinsmobility  co2emission  ETV
vector 35657  IntersectionExampleScenario.node[39].veinsmobility  posx  ETV
vector 35658  IntersectionExampleScenario.node[39].veinsmobility  posy  ETV
vector 35659  IntersectionExampleScenario.node[39].veinsmobility  speed  ETV
vector 35660  IntersectionExampleScenario.node[39].veinsmobility  acceleration  ETV
vector 35661  IntersectionExampleScenario.node[39].veinsmobility  co2emission  ETV
vector 35664  IntersectionExampleScenario.node[40].veinsmobility  posx  ETV
vector 35665  IntersectionExampleScenario.node[40].veinsmobility  posy  ETV
vector 35666  IntersectionExampleScenario.node[40].veinsmobility  speed  ETV
vector 35667  IntersectionExampleScenario.node[40].veinsmobility  acceleration  ETV
vector 35668  IntersectionExampleScenario.node[40].veinsmobility  co2emission  ETV
35598	866235 6172 6916 9168 126.5 175.25 196 0.973 11.648172402475 568.48291236005 2954.6476425118
35597	872407 5701 6916 9168 126.5 175.25 196 -7.03919506073 4 38.341367721558 481.63103295482
35596	878108 6034 6903 9168 126.25 175.25 197 0 15.64999961853 2212.4081838131 31409.619262413
35595	884142 6716 6890 9168 126 175.25 198 236.58178710938 785.82187652588 102285.24065399 56999519.468767
35594	890858 6731 6890 9168 126 175.25 198 483.14999389648 483.14999389648 95663.698791504 46219915.48723
vector 35671  IntersectionExampleScenario.node[41].veinsmobility  posx  ETV
vector 35672  IntersectionExampleScenario.node[41].veinsmobility  posy  ETV
vector 35673  IntersectionExampleScenario.node[41].veinsmobility  speed  ETV
vector 35674  IntersectionExampleScenario.node[41].veinsmobility  acceleration  ETV
vector 35675  IntersectionExampleScenario.node[41].veinsmobility  co2emission  ETV
35605	897990 5576 7230 9296 133.5 177.25 176 0.973 11.810082123732 548.9282852466 3078.3046516777
35604	903566 5621 7230 9296 133.5 177.25 176 -3.2501010894775 2.5 39.699392318726 334.61931636712
35603	909187 5692 7219 9296 133.25 177.25 177 3.6501803398132 15.875 2178.682311058 29740.756620869
35602	914879 6044 7208 9296 133 177.25 178 486.69573974609 785.82187652588 101120.66907501 59207906.760749
35601	920923 6045 7208 9296 133 177.25 178 238.74017333984 483.14999389648 78095.809509277 35194747.745402
35619	926968 5202 7545 9466 140.75 179.75 157 0.97223939240464 11.648172402475 490.68647941173 2635.7602759021
35618	932170 4833 7545 9466 140.75 179.75 157 -3.2744636535645 2.5 38.680875778198 229.58363420991
35617	937003 5174 7534 9466 140.5 179.75 158 5.6500000953674 15.64999961853 2210.8251409531 31892.274480071
35616	942177 5385 7523 9466 140.25 179.75 159 184.17810058594 486.85000610352 63330.434875488 26998701.443373
35615	947562 5404 7523 9466 140.25 179.75 159 236.26147460938 486.85000610352 69002.280670166 30903609.894304
vector 35678  IntersectionExampleScenario.node[42].veinsmobility  posx  ETV
vector 35679  IntersectionExampleScenario.node[42].veinsmobility  posy  ETV
vector 35680  IntersectionExampleScenario.node[42].veinsmobility  speed  ETV
vector 35681  IntersectionExampleScenario.node[42].veinsmobility  acceleration  ETV
vector 35682  IntersectionExampleScenario.node[42].veinsmobility  co2emission  ETV
vector 35685  IntersectionExampleScenario.node[43].veinsmobility  posx  ETV
vector 35686  IntersectionExampleScenario.node[43].veinsmobility  posy  ETV
vector 35692  IntersectionExampleScenario.node[44].veinsmobility  posx  ETV
vector 35693  IntersectionExampleScenario.node[44].veinsmobility  posy  ETV
vector 35687  IntersectionExampleScenario.node[43].veinsmobility  speed  ETV
vector 35688  IntersectionExampleScenario.node[43].veinsmobility  acceleration  ETV
vector 35689  IntersectionExampleScenario.node[43].veinsmobility  co2emission  ETV
vector 35694  IntersectionExampleScenario.node[44].veinsmobility  speed  ETV
vector 35695  IntersectionExampleScenario.node[44].veinsmobility  acceleration  ETV
vector 35696  IntersectionExampleScenario.node[44].veinsmobility  co2emission  ETV
vector 35699  IntersectionExampleScenario.node[45].veinsmobility  posx  ETV
vector 35700  IntersectionExampleScenario.node[45].veinsmobility  posy  ETV
vector 35701  IntersectionExampleScenario.node[45].veinsmobility  speed  ETV
vector 35702  IntersectionExampleScenario.node[45].veinsmobility  acceleration  ETV
vector 35703  IntersectionExampleScenario.node[45].veinsmobility  co2emission  ETV
35612	954570 6753 7363 10263 136.5 191.25 220 0.97223939240464 11.810082123732 594.58419735676 3055.8017968801
35611	961323 6178 7363 10263 136.5 191.25 220 -7.5288543701172 4 38.680875778198 532.74363858263
35610	967501 6424 7352 10263 136.25 191.25 221 0 15.875 2184.4508957863 31063.532692888
35609	973925 7490 7340 10263 136 191.25 222 486.85000610352 734.74661254883 116320.75183105 62000492.276417
35608	981415 7556 7340 10263 136 191.25 222 486.63604736328 785.82187652588 122568.77884674 69652690.470978
vector 35706  IntersectionExampleScenario.node[46].veinsmobility  posx  ETV
vector 35707  IntersectionExampleScenario.node[46].veinsmobility  posy  ETV
vector 35708  IntersectionExampleScenario.node[46].veinsmobility  speed  ETV
vector 35709  IntersectionExampleScenario.node[46].veinsmobility  acceleration  ETV
vector 35710  IntersectionExampleScenario.node[46].veinsmobility  co2emission  ETV
vector 35713  IntersectionExampleScenario.node[47].veinsmobility  posx  ETV
vector 35714  IntersectionExampleScenario.node[47].veinsmobility  posy  ETV
vector 35715  IntersectionExampleScenario.node[47].veinsmobility  speed  ETV
35626	989604 5325 8199 10680 158 197.5 159 0.973 11.200708441096 454.35911991347 2192.1748794677
35625	994929 4830 8199 10680 158 197.5 159 -2.9507179260254 2.5 35.795072555542 167.29327392471
35624	999759 5263 8188 10680 157.75 197.5 160 5.6500000953674 15.02499961853 2213.0092506409 31119.00031273
35623	1005022 5513 8177 10680 157.5 197.5 161 483.14999389648 483.14999389648 77787.149017334 37582860.57295
35622	1010535 5484 8177 10680 157.5 197.5 161 184.17810058594 732.51210021973 72318.647140503 36736366.211433
vector 35716  IntersectionExampleScenario.node[47].veinsmobility  acceleration  ETV
vector 35717  IntersectionExampleScenario.node[47].veinsmobility  co2emission  ETV
vector 35720  IntersectionExampleScenario.node[48].veinsmobility  posx  ETV
vector 35721  IntersectionExampleScenario.node[48].veinsmobility  posy  ETV
vector 35722  IntersectionExampleScenario.node[48].veinsmobility  speed  ETV
vector 35723  IntersectionExampleScenario.node[48].veinsmobility  acceleration  ETV
vector 35724  IntersectionExampleScenario.node[48].veinsmobility  co2emission  ETV
35647	1016589 5415 8402 10998 162.25 202.25 161 0.973 11.200708441096 477.62895767419 2379.7479187834
35646	1022004 4841 8402 10998 162.25 202.25 161 -3.3175048828125 2.5 36.304327011108 215.67578749027
35645	1026845 5294 8389 10998 162 202.25 162 5.6500000953674 15.02499961853 2205.284620285 30804.923358679
35644	1032139 5592 8376 10998 161.75 202.25 163 237.28881835938 486.85000610352 70701.049743652 31646795.462993
35643	1037731 5587 8376 10998 161.75 202.25 163 483.14999389648 785.82187652588 93185.027748108 55078781.295237
35633	1043318 5999 8268 11252 159.5 206 187 0.973 11.90022389248 572.25897800749 3098.4471288201
35632	1049317 5492 8268 11252 159.5 206 187 -6.9388580322266 4 39.869146347046 486.92859168984
35631	1054809 5881 8256 11252 159.25 206 188 0 16 2219.9751734734 32151.358126084
35630	1060690 6471 8243 11252 159 206 189 184.17810058594 735.07762145996 85590.028381348 42883890.323929
35629	1067161 6497 8243 11252 159 206 189 486.85000610352 486.85000610352 92014.651153564 44797333.475726
35640	1073658 5985 8316 11282 160.5 206.5 185 0.973 11.450879080643 546.45703746452 2784.4354884928
35639	1079643 5515 8316 11282 160.5 206.5 185 -8.4870567321777 4 37.15309715271 478.32449572734
35638	1085158 5886 8303 11282 160.25 206.5 186 0 15.375 2198.746417284 30558.207844133
35637	1091044 6420 8290 11282 160 206.5 187 483.14999389648 785.82187652588 105100.78829193 60978410.591689
35636	1097464 6425 8290 11282 160 206.5 187 483.14999389648 732.66976928711 98875.491577148 53309904.653879
35654	1103889 5779 8560 11445 165.5 209.5 177 0.973 11.200708441096 510.20649001689 2533.7100921319
35653	1109668 5738 8560 11445 165.5 209.5 177 -2.8567504882812 2.5 35.795072555542 262.43180565433
35652	1115406 5932 8547 11445 165.25 209.5 178 4.8037967681885 15.02499961853 2213.5626645088 29377.712192586
35651	1121338 6162 8534 11445 165 209.5 179 482.9485168457 785.82187652588 101518.80222321 59431625.31229
35650	1127500 6170 8534 11445 165 209.5 179 483.14999389648 735.02796936035 95373.539703369 51867356.430596
vector 35727  IntersectionExampleScenario.node[49].veinsmobility  posx  ETV
vector 35728  IntersectionExampleScenario.node[49].veinsmobility  posy  ETV
35668	1133824 5573 8782 11546 169.5 211.5 169 0.973 11.810082123732 574.17438862623 3286.9156677644
35667	1139397 5382 8782 11546 169.5 211.5 169 -4.5 2.5 40.038900375366 398.1373789324
35666	1144779 5561 8765 11546 169.25 211.5 170 5.6500000953674 15.875 2215.9310331345 30736.82131072
35665	1150340 5901 8748 11546 169 211.5 171 486.85000610352 792.02188110352 98093.558578491 58099915.006411
35664	1156241 5897 8748 11546 169 211.5 171 235.15887451172 483.14999389648 74535.851867676 33438246.243581
vector 35729  IntersectionExampleScenario.node[49].veinsmobility  speed  ETV
vector 35730  IntersectionExampleScenario.node[49].veinsmobility  acceleration  ETV
vector 35731  IntersectionExampleScenario.node[49].veinsmobility  co2emission  ETV
vector 35734  IntersectionExampleScenario.node[50].veinsmobility  posx  ETV
vector 35735  IntersectionExampleScenario.node[50].veinsmobility  posy  ETV
vector 35736  IntersectionExampleScenario.node[50].veinsmobility  speed  ETV
vector 35741  IntersectionExampleScenario.node[51].veinsmobility  posx  ETV
vector 35742  IntersectionExampleScenario.node[51].veinsmobility  posy  ETV
vector 35737  IntersectionExampleScenario.node[50].veinsmobility  acceleration  ETV
vector 35738  IntersectionExampleScenario.node[50].veinsmobility  co2emission  ETV
vector 35743  IntersectionExampleScenario.node[51].veinsmobility  speed  ETV
vector 35744  IntersectionExampleScenario.node[51].veinsmobility  acceleration  ETV
vector 35745  IntersectionExampleScenario.node[51].veinsmobility  co2emission  ETV
vector 35748  IntersectionExampleScenario.node[52].veinsmobility  posx  ETV
vector 35749  IntersectionExampleScenario.node[52].veinsmobility  posy  ETV
vector 35750  IntersectionExampleScenario.node[52].veinsmobility  speed  ETV
vector 35751  IntersectionExampleScenario.node[52].veinsmobility  acceleration  ETV
vector 35752  IntersectionExampleScenario.node[52].veinsmobility  co2emission  ETV
vector 35755  IntersectionExampleScenario.node[53].veinsmobility  posx  ETV
vector 35756  IntersectionExampleScenario.node[53].veinsmobility  posy  ETV
vector 35757  IntersectionExampleScenario.node[53].veinsmobility  speed  ETV
vector 35758  IntersectionExampleScenario.node[53].veinsmobility  acceleration  ETV
vector 35759  IntersectionExampleScenario.node[53].veinsmobility  co2emission  ETV
vector 35762  IntersectionExampleScenario.node[54].veinsmobility  posx  ETV
vector 35763  IntersectionExampleScenario.node[54].veinsmobility  posy  ETV
vector 35764  IntersectionExampleScenario.node[54].veinsmobility  speed  ETV
vector 35765  IntersectionExampleScenario.node[54].veinsmobility  acceleration  ETV
vector 35766  IntersectionExampleScenario.node[54].veinsmobility  co2emission  ETV
35675	1164390 5439 9262 11950 176.75 217 162 0.973 11.200708441096 476.80589948011 2480.0073285868
35674	1169829 5223 9262 11950 176.75 217 162 -3.2113914489746 2.5 35.795072555542 221.65248362397
35673	1175052 5382 9245 11950 176.5 217 163 5.6500000953674 15.054776191711 2209.4402160645 30703.354381725
35672	1180434 5684 9228 11950 176.25 217 164 483.12158203125 785.82187652588 93727.248191833 55380074.622787
35671	1186118 5685 9228 11950 176.25 217 164 483.14999389648 733.9411315918 88044.73789978 48267816.812809
vector 35769  IntersectionExampleScenario.node[55].veinsmobility  posx  ETV
vector 35770  IntersectionExampleScenario.node[55].veinsmobility  posy  ETV
vector 35776  IntersectionExampleScenario.node[56].veinsmobility  posx  ETV
vector 35777  IntersectionExampleScenario.node[56].veinsmobility  posy  ETV
vector 35771  IntersectionExampleScenario.node[55].veinsmobility  speed  ETV
vector 35772  IntersectionExampleScenario.node[55].veinsmobility  acceleration  ETV
vector 35773  IntersectionExampleScenario.node[55].veinsmobility  co2emission  ETV
vector 35778  IntersectionExampleScenario.node[56].veinsmobility  speed  ETV
vector 35779  IntersectionExampleScenario.node[56].veinsmobility  acceleration  ETV
vector 35780  IntersectionExampleScenario.node[56].veinsmobility  co2emission  ETV
35661	1192605 6723 8733 12428 168.75 222 214 0.973 11.648172402475 585.15595261113 2950.2955072502
35660	1199328 6146 8733 12428 168.75 222 214 -9.1790456771851 4 38.511121749878 510.4470294996
35659	1205474 6467 8718 12428 168.5 222 215 0 15.64999961853 2185.7574701309 30987.784202307
35658	1211941 7475 8703 12428 168.25 222 216 483.14999389648 734.23628234863 112812.07516479 60003288.012849
35657	1219416 7459 8703 12428 168.25 222 216 184.17810058594 486.85000610352 90136.754852295 39608487.50346
vector 35783  IntersectionExampleScenario.node[57].veinsmobility  posx  ETV
vector 35784  IntersectionExampleScenario.node[57].veinsmobility  posy  ETV
vector 35785  IntersectionExampleScenario.node[57].veinsmobility  speed  ETV
vector 35786  IntersectionExampleScenario.node[57].veinsmobility  acceleration  ETV
vector 35787  IntersectionExampleScenario.node[57].veinsmobility  co2emission  ETV
vector 35790  IntersectionExampleScenario.node[58].veinsmobility  posx  ETV
vector 35791  IntersectionExampleScenario.node[58].veinsmobility  posy  ETV
vector 35792  IntersectionExampleScenario.node[58].veinsmobility  speed  ETV
35682	1227508 5293 9767 12575 184.5 223.5 157 0.973 12.099024792222 543.3202759125 3152.2528396104
35681	1232801 4961 9767 12575 184.5 223.5 157 -4.5 2.5 41.227170944214 373.59207058238
35680	1237762 5285 9750 12575 184.25 223.5 158 4.3849468231201 16.27499961853 2186.7468204498 32135.241140182
35679	1243047 5542 9733 12575 184 223.5 159 486.85000610352 734.79432678223 85352.822143555 46728352.06693
35678	1248589 5542 9733 12575 184 223.5 159 486.55029296875 785.82187652588 90897.028511047 53681062.923448
vector 35793  IntersectionExampleScenario.node[58].veinsmobility  acceleration  ETV
vector 35794  IntersectionExampleScenario.node[58].veinsmobility  co2emission  ETV
vector 35797  IntersectionExampleScenario.node[59].veinsmobility  posx  ETV
vector 35798  IntersectionExampleScenario.node[59].veinsmobility  posy  ETV
vector 35799  IntersectionExampleScenario.node[59].veinsmobility  speed  ETV
vector 35800  IntersectionExampleScenario.node[59].veinsmobility  acceleration  ETV
vector 35801  IntersectionExampleScenario.node[59].veinsmobility  co2emission  ETV
35689	1254701 5463 9947 12934 187.25 227.25 161 0.973 11.648172402475 498.56581953567 2686.6172807835
35688	1260164 5186 9947 12934 187.25 227.25 161 -3.4212112426758 2.5 38.171613693237 236.94880489289
35687	1265350 5376 9928 12934 187 227.25 162 5.6500000953674 15.64999961853 2260.7226104736 32470.583732294
35686	1270726 5689 9911 12934 186.75 227.25 163 237.94580078125 486.85000610352 70997.02746582 31881001.275615
35685	1276415 5692 9911 12934 186.75 227.25 163 483.14999389648 800.04531860352 94150.758422852 56377525.310289
vector 35804  IntersectionExampleScenario.node[60].veinsmobility  posx  ETV
vector 35805  IntersectionExampleScenario.node[60].veinsmobility  posy  ETV
vector 35806  IntersectionExampleScenario.node[60].veinsmobility  speed  ETV
vector 35807  IntersectionExampleScenario.node[60].veinsmobility  acceleration  ETV
vector 35808  IntersectionExampleScenario.node[60].veinsmobility  co2emission  ETV
vector 35811  IntersectionExampleScenario.node[61].veinsmobility  posx  ETV
vector 35812  IntersectionExampleScenario.node[61].veinsmobility  posy  ETV
vector 35813  IntersectionExampleScenario.node[61].veinsmobility  speed  ETV
vector 35814  IntersectionExampleScenario.node[61].veinsmobility  acceleration  ETV
vector 35815  IntersectionExampleScenario.node[61].veinsmobility  co2emission  ETV
vector 35818  IntersectionExampleScenario.node[62].veinsmobility  posx  ETV
vector 35819  IntersectionExampleScenario.node[62].veinsmobility  posy  ETV
vector 35820  IntersectionExampleScenario.node[62].veinsmobility  speed  ETV
vector 35821  IntersectionExampleScenario.node[62].veinsmobility  acceleration  ETV
vector 35822  IntersectionExampleScenario.node[62].veinsmobility  co2emission  ETV
35703	1283310 6227 10046 13835 188.5 236.75 194 0.973 11.90022389248 585.24286322424 3165.9237121142
35702	1289537 5918 10046 13835 188.5 236.75 194 -7.5911083221436 4 41.057416915894 489.42610071715
35701	1295455 6120 10025 13835 188.25 236.75 195 0 16.12095451355 2218.634652853 32574.81431896
35700	1301575 6831 10004 13835 188 236.75 196 184.17810058594 734.86402893066 88857.071365356 44352118.857079
35699	1308406 6860 10004 13835 188 236.75 196 486.85000610352 486.85000610352 95422.601196289 46456493.974827
35696	1315266 6578 9966 13967 187.5 238 203 0.973 11.200708441096 549.7713390446 2640.4688077063
35695	1321844 6008 9966 13967 187.5 238 203 -7.2424693107605 4 35.455564498901 448.16378211868
35694	1327852 6411 9947 13967 187.25 238 204 0 15.02499961853 2181.8535255194 29453.276232969
35693	1334263 7158 9928 13967 187 238 205 486.63604736328 785.82187652588 114513.88237762 65917637.304446
35692	1341421 7105 9928 13967 187 238 205 235.55383300781 483.14999389648 90386.600646973 40913310.593151
35710	1348526 6369 10318 14148 192 240 193 0.973 11.200708441096 547.17169014411 2655.6139284022
35709	1354895 6132 10318 14148 192 240 193 -4.5 2.5 37.492597579956 371.14968202237
35708	1361027 6533 10299 14148 191.75 240 194 0 15.03977394104 2188.6768065244 29724.51392186
35707	1367560 6813 10280 14148 191.5 240 195 486.85000610352 785.82187652588 109597.58341217 63465251.073867
35706	1374373 6816 10280 14148 191.5 240 195 235.44000244141 483.14999389648 85815.391540527 38785793.294101
35724	1381189 5376 10930 14253 201.25 241.25 161 0.973 11.810082123732 571.13610519588 3628.8518709025
35723	1386565 5189 10930 14253 201.25 241.25 161 -3.7504901885986 2.5 39.359884262085 387.4327622493
35722	1391754 5355 10913 14253 201 241.25 162 5.6500000953674 15.875 2181.7479081154 30791.43639755
35721	1397109 5677 10896 14253 200.75 241.25 163 184.17810058594 483.14999389648 64770.49307251 27465787.063791
35720	1402786 5701 10896 14253 200.75 241.25 163 486.85000610352 732.71662902832 87381.825408936 47760328.918263
vector 35825  IntersectionExampleScenario.node[63].veinsmobility  posx  ETV
vector 35826  IntersectionExampleScenario.node[63].veinsmobility  posy  ETV
vector 35827  IntersectionExampleScenario.node[63].veinsmobility  speed  ETV
vector 35828  IntersectionExampleScenario.node[63].veinsmobility  acceleration  ETV
vector 35829  IntersectionExampleScenario.node[63].veinsmobility  co2emission  ETV
35717	1408888 6059 10697 14446 197.75 243.5 184 0.973 11.200708441096 560.79128862889 2943.9442972587
35716	1414947 6043 10697 14446 197.75 243.5 184 -4.5 2.5 35.625318527222 366.04200154489
35715	1420990 6437 10680 14446 197.5 243.5 185 5.6500000953674 15.02499961853 2210.0704827309 28167.381109108
35714	1427427 6498 10663 14446 197.25 243.5 186 483.14999389648 785.82187652588 105370.79152679 61572921.228896
35713	1433925 6499 10663 14446 197.25 243.5 186 483.14999389648 732.96987915039 98752.386459351 53469588.20839
35752	1440424 5193 11730 15190 214.5 252.75 154 0.973 11.36141391502 481.80707386942 2624.9767506336
35751	1445617 5042 11730 15190 214.5 252.75 154 -4.3346481323242 2.5 37.15309715271 281.87462359932
35750	1450659 5110 11711 15190 214.25 252.75 155 5.6500000953674 15.25 2067.8812971115 28796.829140295
35749	1455769 5440 11692 15190 214 252.75 156 212.90466308594 483.17260742188 63748.460540771 27410238.2464
35748	1461209 5454 11692 15190 214 252.75 156 486.85000610352 733.44892883301 84306.934494019 46484679.162779
35731	1466663 5623 11572 15275 212 254 169 0.973 11.97693353363 556.23330568907 3110.6001599286
35730	1472286 5957 11572 15275 212 254 169 -3.6679086685181 2.5 39.982789993286 388.39317956774
35729	1478243 5915 11559 15275 211.75 254 170 2.5552895069122 16.106243133545 2214.2243368626 31369.320742628
35728	1484158 5984 11546 15275 211.5 254 171 483.14999389648 483.14999389648 82618.648956299 39917199.738971
35727	1490142 5945 11546 15275 211.5 254 171 184.17810058594 733.12371826172 77180.172195435 38945574.516187
35766	1496087 5284 11858 15291 216 254.25 154 0.973 11.648172402475 470.76336111104 2462.8829942015
35765	1501371 4860 11858 15291 216 254.25 154 -3.1964340209961 2.5 38.341367721558 191.50698189953
35764	1506231 5195 11835 15291 215.75 254.25 155 5.6500000953674 15.64999961853 2217.1332035065 32350.133301773
35763	1511426 5460 11812 15291 215.5 254.25 156 486.85000610352 486.85000610352 75948.600952148 36975576.837107
35762	1516886 5441 11812 15291 215.5 254.25 156 236.734375 785.82187652588 81337.366569519 46547903.090508
35759	1522327 5414 11791 15351 215.25 255.25 161 0.973 11.648172402475 515.91482949608 2937.4460785044
35758	1527741 5129 11791 15351 215.25 255.25 161 -3.4737396240234 2.5 38.511121749878 261.53888210675
35757	1532870 5382 11770 15351 215 255.25 162 5.6500000953674 15.64999961853 2253.0794067383 32263.452451013
35756	1538252 5699 11749 15351 214.75 255.25 163 483.14999389648 733.02336120605 87133.832641602 47542240.326373
35755	1543951 5672 11749 15351 214.75 255.25 163 172.9296875 486.85000610352 64208.639892578 27239592.699789
vector 35832  IntersectionExampleScenario.node[64].veinsmobility  posx  ETV
vector 35833  IntersectionExampleScenario.node[64].veinsmobility  posy  ETV
vector 35834  IntersectionExampleScenario.node[64].veinsmobility  speed  ETV
vector 35835  IntersectionExampleScenario.node[64].veinsmobility  acceleration  ETV
vector 35836  IntersectionExampleScenario.node[64].veinsmobility  co2emission  ETV
vector 35839  IntersectionExampleScenario.node[65].veinsmobility  posx  ETV
vector 35840  IntersectionExampleScenario.node[65].veinsmobility  posy  ETV
vector 35841  IntersectionExampleScenario.node[65].veinsmobility  speed  ETV
vector 35842  IntersectionExampleScenario.node[65].veinsmobility  acceleration  ETV
vector 35843  IntersectionExampleScenario.node[65].veinsmobility  co2emission  ETV
35787	1550425 5089 12501 15677 222.75 260.5 152 0.973 11.990504229548 494.33330802737 2895.2937208662
35786	1555514 5014 12501 15677 222.75 260.5 152 -3.7167930603027 2.5 39.699392318726 228.32707090272
35785	1560528 5102 12476 15677 222.5 260.5 153 5.6500000953674 16.125 2222.8043336868 33000.119083903
35784	1565630 5391 12451 15677 222.25 260.5 154 483.14999389648 483.14999389648 74405.099060059 35948823.156735
35783	1571021 5352 12451 15677 222.25 260.5 154 184.17810058594 734.52032470703 69054.968780518 35071857.642445
vector 35846  IntersectionExampleScenario.node[66].veinsmobility  posx  ETV
vector 35847  IntersectionExampleScenario.node[66].veinsmobility  posy  ETV
vector 35848  IntersectionExampleScenario.node[66].veinsmobility  speed  ETV
vector 35849  IntersectionExampleScenario.node[66].veinsmobility  acceleration  ETV
vector 35850  IntersectionExampleScenario.node[66].veinsmobility  co2emission  ETV
35794	1576774 5592 12600 15908 223.75 264.75 165 0.97223939240464 11.810082123732 538.86515901966 3084.3798760962
35793	1582366 5167 12600 15908 223.75 264.75 165 -4.5 2.5 38.680875778198 327.91589683316
35792	1587533 5475 12575 15908 223.5 264.75 166 5.6500000953674 15.875 2267.5370879173 32366.785568457
35791	1593008 5845 12550 15908 223.25 264.75 167 238.28295898438 483.14999389648 72637.509033203 32515614.138418
35790	1598853 5813 12550 15908 223.25 264.75 167 162.00311279297 483.14999389648 64926.909637451 27325064.414901
35738	1604666 7013 11641 16096 213.25 268.25 221 0.973 11.36141391502 593.41510077995 2814.0750912137
35737	1611679 6631 11641 16096 213.25 268.25 221 -8.0711517333984 4 38.341367721558 483.89712548512
35736	1618310 6781 11626 16096 213 268.25 222 0 15.282515525818 2176.0043141842 29882.141933027
35735	1625091 7787 11611 16096 212.75 268.25 223 184.17810058594 483.36395263672 91712.337127686 39914651.414015
35734	1632878 7736 11611 16096 212.75 268.25 223 486.85000610352 733.04777526855 116749.29917908 62161071.547668
vector 35853  IntersectionExampleScenario.node[67].veinsmobility  posx  ETV
vector 35854  IntersectionExampleScenario.node[67].veinsmobility  posy  ETV
vector 35855  IntersectionExampleScenario.node[67].veinsmobility  speed  ETV
35745	1640846 7681 11675 16187 213.75 271 230 0.973 11.36141391502 596.75096474748 2682.2865138672
35744	1648527 7887 11675 16187 213.75 271 230 -4.5 2.5 37.492597579956 397.05457276336
35743	1656414 7806 11658 16187 213.5 271 231 0 15.276003837585 2288.9448487703 30484.332123071
35742	1664220 8097 11641 16187 213.25 271 232 160.43438720703 483.2809753418 93385.520172119 40193149.82
35741	1672317 8113 11641 16187 213.25 271 232 486.85000610352 735.46211242676 121404.10247803 64618561.164592
vector 35856  IntersectionExampleScenario.node[67].veinsmobility  acceleration  ETV
vector 35857  IntersectionExampleScenario.node[67].veinsmobility  co2emission  ETV
35780	1680599 6772 12282 16214 220.5 271.75 206 0.973 11.90022389248 592.56756104053 3110.5573765639
35779	1687371 6424 12282 16214 220.5 271.75 206 -4.5 2.5 41.396924972534 407.14099080609
35778	1693795 6960 12255 16214 220.25 271.75 207 0 16.049541473389 2150.3418036718 30041.824418398
35777	1700755 7269 12228 16214 220 271.75 208 198.83776855469 486.87658691406 86768.509063721 37836829.195209
35776	1708024 7267 12228 16214 220 271.75 208 236.41143798828 486.85000610352 93205.517700195 42795987.998425
35773	1715291 6947 12255 16277 220.25 273.5 214 0.973 11.990504229548 601.6086999787 3126.2776388158
35772	1722238 7139 12255 16277 220.25 273.5 214 -4.5 2.5000019073486 43.862693786621 417.08741676731
35771	1729377 7315 12228 16277 220 273.5 215 0 16.125 2248.3454169035 30437.072078797
35770	1736692 7525 12203 16277 219.75 273.5 216 175.78106689453 732.71850585938 94958.070983887 46173463.966718
35769	1744217 7560 12203 16277 219.75 273.5 216 486.85000610352 486.85000610352 105159.60131836 51196952.543686
35801	1751777 6471 12796 16340 225.75 275.25 199 0.973 12.099024792222 578.914309899 3181.769874658
35800	1758248 6533 12796 16340 225.75 275.25 199 -4.5 2.5 41.227170944214 393.74194823215
35799	1764781 6754 12772 16340 225.5 275.25 200 0 16.27499961853 2235.4384843484 31011.123732555
35798	1771535 7012 12747 16340 225.25 275.25 201 179.71453857422 732.740234375 89106.728118896 43611435.714255
35797	1778547 7036 12747 16340 225.25 275.25 201 486.85000610352 486.85000610352 97856.851226807 47641608.617041
vector 35860  IntersectionExampleScenario.node[68].veinsmobility  posx  ETV
vector 35861  IntersectionExampleScenario.node[68].veinsmobility  posy  ETV
vector 35862  IntersectionExampleScenario.node[68].veinsmobility  speed  ETV
vector 35863  IntersectionExampleScenario.node[68].veinsmobility  acceleration  ETV
vector 35864  IntersectionExampleScenario.node[68].veinsmobility  co2emission  ETV
35829	1785984 5332 14446 16629 243.5 282.5 157 0.973 11.810082123732 515.43055861261 2886.8724378541
35828	1791316 4833 14446 16629 243.5 282.5 157 -3.4797992706299 2.5 39.869146347046 288.3537892539
35827	1796149 5219 14423 16629 243.25 282.5 158 5.6500000953674 15.875 2188.3650727272 31769.767524
35826	1801368 5541 14400 16629 243 282.5 159 184.17810058594 483.14999389648 63186.488616943 26835570.35997
35825	1806909 5524 14400 16629 243 282.5 159 486.85000610352 734.2177734375 85471.097869873 46861497.058817
vector 35867  IntersectionExampleScenario.node[69].veinsmobility  posx  ETV
vector 35868  IntersectionExampleScenario.node[69].veinsmobility  posy  ETV
vector 35869  IntersectionExampleScenario.node[69].veinsmobility  speed  ETV
vector 35870  IntersectionExampleScenario.node[69].veinsmobility  acceleration  ETV
vector 35871  IntersectionExampleScenario.node[69].veinsmobility  co2emission  ETV
35815	1812834 6214 13756 16697 236 284 193 0.973 12.099024792222 578.25069094499 3176.229278067
35814	1819048 5877 13756 16697 236 284 193 -7.8776445388794 4 40.038900375366 507.6300871309
35813	1824925 6054 13730 16697 235.75 284 194 0 16.27499961853 2184.4823210239 31478.337280701
35812	1830979 6752 13703 16697 235.5 284 195 486.85000610352 734.86784362793 103022.41297913 55425330.174547
35811	1837731 6808 13703 16697 235.5 284 195 486.63604736328 785.82187652588 108957.16199493 62759082.148929
35808	1844539 6480 13628 16715 234.75 284.5 200 0.973 11.648172402475 579.81965248502 2983.0237559607
35807	1851019 5940 13628 16715 234.75 284.5 200 -8.1522026062012 4 39.529638290405 484.00176769663
35806	1856959 6433 13603 16715 234.5 284.5 201 0 15.64999961853 2206.6949832439 31484.121652244
35805	1863392 7071 13578 16715 234.25 284.5 202 483.14999389648 483.14999389648 97596.29876709 47153651.153639
35804	1870463 7043 13578 16715 234.25 284.5 202 184.17810058594 731.69026184082 91570.817611694 45590012.77579
35822	1877506 6391 13835 16742 236.75 285.25 195 0.973 11.90022389248 583.50657582205 3120.8820459104
35821	1883897 5978 13835 16742 236.75 285.25 195 -4.5 2.5 39.699392318726 495.19977889193
35820	1889875 6247 13808 16742 236.5 285.25 196 0 16 2297.5472602248 32696.982832159
35819	1896122 6886 13781 16742 236.25 285.25 197 237.53442382812 486.85000610352 87724.264434814 40082833.629921
35818	1903008 6881 13781 16742 236.25 285.25 197 483.13299560547 808.82032012939 112059.17713165 66029406.674163
vector 35874  IntersectionExampleScenario.node[70].veinsmobility  posx  ETV
vector 35875  IntersectionExampleScenario.node[70].veinsmobility  posy  ETV
vector 35876  IntersectionExampleScenario.node[70].veinsmobility  speed  ETV
vector 35877  IntersectionExampleScenario.node[70].veinsmobility  acceleration  ETV
vector 35878  IntersectionExampleScenario.node[70].veinsmobility  co2emission  ETV
vector 35881  IntersectionExampleScenario.node[71].veinsmobility  posx  ETV
vector 35882  IntersectionExampleScenario.node[71].veinsmobility  posy  ETV
vector 35883  IntersectionExampleScenario.node[71].veinsmobility  speed  ETV
vector 35884  IntersectionExampleScenario.node[71].veinsmobility  acceleration  ETV
vector 35885  IntersectionExampleScenario.node[71].veinsmobility  co2emission  ETV
35836	1910691 5661 15414 17279 256.25 298.75 171 0.973 12.099024792222 565.76398469741 3225.5627741635
35835	1916352 5404 15414 17279 256.25 298.75 171 -7.2880620956421 4 41.057416915894 494.45701285073
35834	1921756 5639 15398 17279 256 298.75 172 0 16.27499961853 2218.9884870052 32605.990176648
35833	1927395 6026 15381 17279 255.75 298.75 173 184.17810058594 734.86402893066 78026.086624146 39248256.146927
35832	1933421 6056 15381 17279 255.75 298.75 173 486.85000610352 486.85000610352 84225.051055908 41004966.620638
35843	1939477 5728 15478 17320 257.25 299.75 171 0.93438186594183 12.26218747632 566.20179573669 3291.8464769624
35842	1945205 5418 15478 17320 257.25 299.75 171 -4.5 2.5 41.057416915894 442.91629099755
35841	1950623 5701 15461 17320 257 299.75 172 2.3985042572021 16.5 2280.0636248589 33003.833701745
35840	1956324 6024 15444 17320 256.75 299.75 173 162.00311279297 483.14999389648 67964.374816895 28796617.398794
35839	1962348 6048 15444 17320 256.75 299.75 173 486.85000610352 734.53472900391 92160.28805542 50036996.243318
vector 35888  IntersectionExampleScenario.node[72].veinsmobility  posx  ETV
vector 35889  IntersectionExampleScenario.node[72].veinsmobility  posy  ETV
vector 35890  IntersectionExampleScenario.node[72].veinsmobility  speed  ETV
vector 35891  IntersectionExampleScenario.node[72].veinsmobility  acceleration  ETV
vector 35892  IntersectionExampleScenario.node[72].veinsmobility  co2emission  ETV
35857	1968797 5191 16196 17653 271.25 309 152 0.973 11.990504229548 480.56587504167 2612.2460010431
35856	1973988 4755 16196 17653 271.25 309 152 -3.0983085632324 2.5 39.699392318726 198.74124400146
35855	1978743 5103 16187 17653 271 309 153 5.6500000953674 16.125 2223.7700643539 33036.011175474
35854	1983846 5350 16178 17653 270.75 309 154 184.17810058594 734.81689453125 69104.698577881 35120460.892283
35853	1989196 5389 16178 17653 270.75 309 154 486.85000610352 486.85000610352 74974.900939941 36501530.980221
vector 35895  IntersectionExampleScenario.node[73].veinsmobility  posx  ETV
vector 35896  IntersectionExampleScenario.node[73].veinsmobility  posy  ETV
vector 35897  IntersectionExampleScenario.node[73].veinsmobility  speed  ETV
vector 35898  IntersectionExampleScenario.node[73].veinsmobility  acceleration  ETV
vector 35899  IntersectionExampleScenario.node[73].veinsmobility  co2emission  ETV
vector 35902  IntersectionExampleScenario.node[74].veinsmobility  posx  ETV
vector 35903  IntersectionExampleScenario.node[74].veinsmobility  posy  ETV
vector 35904  IntersectionExampleScenario.node[74].veinsmobility  speed  ETV
vector 35905  IntersectionExampleScenario.node[74].veinsmobility  acceleration  ETV
vector 35906  IntersectionExampleScenario.node[74].veinsmobility  co2emission  ETV
vector 35909  IntersectionExampleScenario.node[75].veinsmobility  posx  ETV
vector 35910  IntersectionExampleScenario.node[75].veinsmobility  posy  ETV
vector 35911  IntersectionExampleScenario.node[75].veinsmobility  speed  ETV
vector 35912  IntersectionExampleScenario.node[75].veinsmobility  acceleration  ETV
vector 35913  IntersectionExampleScenario.node[75].veinsmobility  co2emission  ETV
35850	1995788 6478 15863 17943 264 314.75 204 0.973 12.099024792222 591.06057379842 3230.18299563
35849	2002266 6134 15863 17943 264 314.75 204 -7.8776445388794 4 40.038900375366 513.03881719338
35848	2008400 6327 15848 17943 263.75 314.75 205 0 16.27499961853 2205.5864975452 32071.414867027
35847	2014727 7211 15833 17943 263.5 314.75 206 486.85000610352 486.85000610352 100291.10125732 48826723.259256
35846	2021938 7185 15833 17943 263.5 314.75 206 238.29949951172 785.82187652588 106399.91846466 59002253.839821
vector 35916  IntersectionExampleScenario.node[76].veinsmobility  posx  ETV
vector 35917  IntersectionExampleScenario.node[76].veinsmobility  posy  ETV
vector 35918  IntersectionExampleScenario.node[76].veinsmobility  speed  ETV
35864	2029355 5109 16497 18093 279.5 318 155 0.973 12.099024792222 528.94327156828 3356.4416423312
35863	2034464 4976 16497 18093 279.5 318 155 -3.0043983459473 2.5 40.038900375366 272.39555438771
35862	2039440 5221 16486 18093 279.25 318 156 5.6500000953674 16.27499961853 2212.7456712723 32187.636904182
35861	2044661 5493 16475 18093 279 318 157 486.85000610352 486.85000610352 76435.450958252 37212599.76555
35860	2050154 5470 16475 18093 279 318 157 237.77813720703 785.82187652588 82178.026008606 47055923.450081
vector 35919  IntersectionExampleScenario.node[76].veinsmobility  acceleration  ETV
vector 35920  IntersectionExampleScenario.node[76].veinsmobility  co2emission  ETV
vector 35923  IntersectionExampleScenario.node[77].veinsmobility  posx  ETV
vector 35924  IntersectionExampleScenario.node[77].veinsmobility  posy  ETV
vector 35925  IntersectionExampleScenario.node[77].veinsmobility  speed  ETV
vector 35926  IntersectionExampleScenario.node[77].veinsmobility  acceleration  ETV
vector 35927  IntersectionExampleScenario.node[77].veinsmobility  co2emission  ETV
vector 35930  IntersectionExampleScenario.node[78].veinsmobility  posx  ETV
vector 35931  IntersectionExampleScenario.node[78].veinsmobility  posy  ETV
vector 35932  IntersectionExampleScenario.node[78].veinsmobility  speed  ETV
vector 35937  IntersectionExampleScenario.node[79].veinsmobility  posx  ETV
vector 35938  IntersectionExampleScenario.node[79].veinsmobility  posy  ETV
vector 35933  IntersectionExampleScenario.node[78].veinsmobility  acceleration  ETV
vector 35934  IntersectionExampleScenario.node[78].veinsmobility  co2emission  ETV
vector 35939  IntersectionExampleScenario.node[79].veinsmobility  speed  ETV
vector 35940  IntersectionExampleScenario.node[79].veinsmobility  acceleration  ETV
vector 35941  IntersectionExampleScenario.node[79].veinsmobility  co2emission  ETV
vector 35944  IntersectionExampleScenario.node[80].veinsmobility  posx  ETV
vector 35945  IntersectionExampleScenario.node[80].veinsmobility  posy  ETV
vector 35946  IntersectionExampleScenario.node[80].veinsmobility  speed  ETV
vector 35947  IntersectionExampleScenario.node[80].veinsmobility  acceleration  ETV
vector 35948  IntersectionExampleScenario.node[80].veinsmobility  co2emission  ETV
vector 35951  IntersectionExampleScenario.node[81].veinsmobility  posx  ETV
vector 35952  IntersectionExampleScenario.node[81].veinsmobility  posy  ETV
vector 35953  IntersectionExampleScenario.node[81].veinsmobility  speed  ETV
vector 35954  IntersectionExampleScenario.node[81].veinsmobility  acceleration  ETV
vector 35955  IntersectionExampleScenario.node[81].veinsmobility  co2emission  ETV
vector 35958  IntersectionExampleScenario.node[82].veinsmobility  posx  ETV
vector 35959  IntersectionExampleScenario.node[82].veinsmobility  posy  ETV
vector 35960  IntersectionExampleScenario.node[82].veinsmobility  speed  ETV
vector 35961  IntersectionExampleScenario.node[82].veinsmobility  acceleration  ETV
vector 35962  IntersectionExampleScenario.node[82].veinsmobility  co2emission  ETV
35871	2058199 6227 16666 19072 283.25 330.5 190 0.973 11.450879080643 552.47264826173 2812.4400976787
35870	2064426 5735 16666 19072 283.25 330.5 190 -8.4870567321777 4 37.15309715271 481.82449572734
35869	2070161 6129 16653 19072 283 330.5 191 0 15.375 2210.4979660511 30840.215052249
35868	2076290 6704 16640 19072 282.75 330.5 192 236.75714111328 785.82187652588 99318.916496277 55590991.472561
35867	2082994 6720 16640 19072 282.75 330.5 192 483.14999389648 483.14999389648 92764.798828125 44819311.987617
35878	2089714 5377 16998 19187 292.25 331.75 159 0.973 11.810082123732 512.32836687702 2879.823142108
35877	2095091 5062 16998 19187 292.25 331.75 159 -3.3518524169922 2.5 38.850629806519 287.8095357678
35876	2100153 5266 16987 19187 292 331.75 160 5.6500000953674 15.875 2181.8715858459 31159.39423775
35875	2105419 5609 16976 19187 291.75 331.75 161 184.17810058594 483.17190551758 64015.729003906 27190912.954173
35874	2111028 5630 16976 19187 291.75 331.75 161 486.85000610352 732.52940368652 86465.915039062 47350174.109819
vector 35965  IntersectionExampleScenario.node[83].veinsmobility  posx  ETV
vector 35966  IntersectionExampleScenario.node[83].veinsmobility  posy  ETV
vector 35967  IntersectionExampleScenario.node[83].veinsmobility  speed  ETV
vector 35968  IntersectionExampleScenario.node[83].veinsmobility  acceleration  ETV
vector 35969  IntersectionExampleScenario.node[83].veinsmobility  co2emission  ETV
vector 35972  IntersectionExampleScenario.node[84].veinsmobility  posx  ETV
vector 35973  IntersectionExampleScenario.node[84].veinsmobility  posy  ETV
vector 35974  IntersectionExampleScenario.node[84].veinsmobility  speed  ETV
vector 35975  IntersectionExampleScenario.node[84].veinsmobility  acceleration  ETV
vector 35976  IntersectionExampleScenario.node[84].veinsmobility  co2emission  ETV
vector 35979  IntersectionExampleScenario.node[85].veinsmobility  posx  ETV
vector 35980  IntersectionExampleScenario.node[85].veinsmobility  posy  ETV
vector 35981  IntersectionExampleScenario.node[85].veinsmobility  speed  ETV
vector 35982  IntersectionExampleScenario.node[85].veinsmobility  acceleration  ETV
vector 35983  IntersectionExampleScenario.node[85].veinsmobility  co2emission  ETV
vector 35986  IntersectionExampleScenario.node[86].veinsmobility  posx  ETV
vector 35987  IntersectionExampleScenario.node[86].veinsmobility  posy  ETV
vector 35988  IntersectionExampleScenario.node[86].veinsmobility  speed  ETV
vector 35989  IntersectionExampleScenario.node[86].veinsmobility  acceleration  ETV
vector 35990  IntersectionExampleScenario.node[86].veinsmobility  co2emission  ETV
vector 35993  IntersectionExampleScenario.node[87].veinsmobility  posx  ETV
vector 35994  IntersectionExampleScenario.node[87].veinsmobility  posy  ETV
vector 35995  IntersectionExampleScenario.node[87].veinsmobility  speed  ETV
vector 35996  IntersectionExampleScenario.node[87].veinsmobility  acceleration  ETV
vector 35997  IntersectionExampleScenario.node[87].veinsmobility  co2emission  ETV
35885	2118663 6652 17092 20691 294.5 346.25 208 0.973 11.648172402475 588.108674312 3045.7527297185
35884	2125315 6155 17092 20691 294.5 346.25 208 -8.8858995437622 4 38.341367721558 512.45206507739
35883	2131470 6451 17081 20691 294.25 346.25 209 0 15.64999961853 2198.7678010464 31008.541272704
35882	2137921 7347 17070 20691 294 346.25 210 237.29504394531 486.85000610352 93863.55255127 43012707.482082
35881	2145268 7342 17070 20691 294 346.25 210 483.14999389648 785.82187652588 116416.46434784 66514635.307621
vector 36000  IntersectionExampleScenario.node[88].veinsmobility  posx  ETV
vector 36001  IntersectionExampleScenario.node[88].veinsmobility  posy  ETV
vector 36002  IntersectionExampleScenario.node[88].veinsmobility  speed  ETV
vector 36003  IntersectionExampleScenario.node[88].veinsmobility  acceleration  ETV
vector 36004  IntersectionExampleScenario.node[88].veinsmobility  co2emission  ETV
35892	2153011 5801 17446 20842 303.25 347.75 179 0.973 12.099024792222 553.60671116977 3018.6289098151
35891	2158812 5593 17446 20842 303.25 347.75 179 -2.1732482910156 2.5 41.566686630249 286.55751678727
35890	2164405 6055 17437 20842 303 347.75 180 3.0113613605499 16.27499961853 2208.8556063175 30593.440148704
35889	2170460 6322 17428 20842 302.75 347.75 181 236.73370361328 486.85000610352 80091.002624512 36418089.937532
35888	2176782 6329 17428 20842 302.75 347.75 181 483.13073730469 785.82187652588 102402.29290009 59722060.680283
vector 36007  IntersectionExampleScenario.node[89].veinsmobility  posx  ETV
vector 36008  IntersectionExampleScenario.node[89].veinsmobility  posy  ETV
vector 36009  IntersectionExampleScenario.node[89].veinsmobility  speed  ETV
vector 36010  IntersectionExampleScenario.node[89].veinsmobility  acceleration  ETV
vector 36011  IntersectionExampleScenario.node[89].veinsmobility  co2emission  ETV
vector 36014  IntersectionExampleScenario.node[90].veinsmobility  posx  ETV
vector 36015  IntersectionExampleScenario.node[90].veinsmobility  posy  ETV
vector 36016  IntersectionExampleScenario.node[90].veinsmobility  speed  ETV
vector 36017  IntersectionExampleScenario.node[90].veinsmobility  acceleration  ETV
vector 36018  IntersectionExampleScenario.node[90].veinsmobility  co2emission  ETV
vector 36021  IntersectionExampleScenario.node[91].veinsmobility  posx  ETV
vector 36022  IntersectionExampleScenario.node[91].veinsmobility  posy  ETV
vector 36023  IntersectionExampleScenario.node[91].veinsmobility  speed  ETV
vector 36024  IntersectionExampleScenario.node[91].veinsmobility  acceleration  ETV
vector 36025  IntersectionExampleScenario.node[91].veinsmobility  co2emission  ETV
35927	2184314 5341 18149 21679 319 357.75 156 0.97223939240464 11.648172402475 492.14756265096 2642.1924718167
35926	2189655 4804 18149 21679 319 357.75 156 -4.056884765625 2.5 38.680875778198 242.46451577521
35925	2194459 5213 18134 21679 318.75 357.75 157 5.6500000953674 15.64999961853 2203.143330574 31848.467378614
35924	2199672 5519 18119 21679 318.5 357.75 158 237.24237060547 486.85000610352 68585.992004395 30718851.140265
35923	2205191 5525 18119 21679 318.5 357.75 158 482.97265625 785.82187652588 90413.027503967 53503927.483482
35906	2210716 6358 17774 21934 311.75 361 198 0.973 11.810082123732 572.59232312712 3034.1622615136
35905	2217074 6063 17774 21934 311.75 361 198 -8.6357612609863 4 39.020376205444 502.32205708136
35904	2223137 6178 17761 21934 311.5 361 199 0 15.875 2172.1470367908 30841.112735964
35903	2229315 6972 17748 21934 311.25 361 200 184.17810058594 483.36395263672 82396.651672363 35851159.291928
35902	2236287 6931 17748 21934 311.25 361 200 486.85000610352 731.89318847656 105385.25744629 56514258.128559
35899	2243218 6655 17693 21971 310 361.5 207 0.973 11.450879080643 567.22073413523 2821.0527238682
35898	2249873 6136 17693 21971 310 361.5 207 -8.2099418640137 4 36.813589096069 486.56962067089
35897	2256009 6482 17682 21971 309.75 361.5 208 0 15.375 2205.7411608696 30668.853766336
35896	2262491 7292 17671 21971 309.5 361.5 209 237.89031982422 785.82187652588 107857.13541412 59873424.029488
35895	2269783 7315 17671 21971 309.5 361.5 209 483.14999389648 483.14999389648 100978.34872437 48787688.569854
35913	2277098 6684 17856 22068 313.25 363 200 0.973 11.249876987865 582.86027241451 2885.8612835992
35912	2283782 6618 17856 22068 313.25 363 200 -4.5 2.5000001192093 39.699392318726 428.79545280692
35911	2290400 7005 17841 22068 313 363 201 0 15.649116516113 2259.1432247143 31878.354429068
35910	2297405 7048 17826 22068 312.75 363 202 483.14999389648 797.07032012939 113525.02372742 65901713.825102
35909	2304453 7054 17826 22068 312.75 363 202 483.14999389648 735.1681060791 105975.22949219 56654276.206093
35920	2311507 5950 18106 22113 318.25 363.75 183 0.97223939240464 11.648172402475 543.18951247819 2897.5010665402
35919	2317457 5998 18106 22113 318.25 363.75 183 -3.1752471923828 2.5 38.680875778198 300.74036772534
35918	2323455 6235 18093 22113 318 363.75 184 3.1080703735352 15.64999961853 2228.7149739265 30031.350343601
35917	2329690 6457 18080 22113 317.75 363.75 185 238.13757324219 790.1321182251 97257.406074524 55331491.47277
35916	2336147 6476 18080 22113 317.75 363.75 185 483.14999389648 483.14999389648 89382.74887085 43185274.571402
35934	2342623 5541 18378 22158 322.75 364.5 168 0.973 11.648172402475 553.04225130916 3108.5645701098
35933	2348164 5360 18378 22158 322.75 364.5 168 -2.9273166656494 2.5 39.869146347046 324.85799276018
35932	2353524 5657 18361 22158 322.5 364.5 169 5.6500000953674 15.675439834595 2188.8883681297 30212.469452691
35931	2359181 5927 18344 22158 322.25 364.5 170 184.17810058594 483.14999389648 67858.440460205 28823894.791876
35930	2365108 5942 18344 22158 322.25 364.5 170 486.85000610352 733.99932861328 90818.143478394 49457495.326439
35948	2371050 5458 18515 22218 324.5 365.5 165 0.973 11.648172402475 528.64697707262 2876.9330844415
35947	2376508 5414 18515 22218 324.5 365.5 165 -3.3737449645996 2.5 41.396924972534 268.6250376245
35946	2381922 5580 18494 22218 324.25 365.5 166 5.6500000953674 16.045658111572 2211.6276035309 31144.4246911
[...]
vector 38817  IntersectionExampleScenario.node[490].veinsmobility  acceleration  ETV
vector 38818  IntersectionExampleScenario.node[490].veinsmobility  co2emission  ETV
vector 38823  IntersectionExampleScenario.node[491].veinsmobility  speed  ETV
vector 38824  IntersectionExampleScenario.node[491].veinsmobility  acceleration  ETV
vector 38825  IntersectionExampleScenario.node[491].veinsmobility  co2emission  ETV
38713	14846397 6847 116693 120791 1705.5 1756 203 0.973 11.810082123732 573.61448933129 3030.1283573469
38712	14853244 6368 116693 120791 1705.5 1756 203 -7.7558908462524 4 39.869146347046 496.1256128912
38711	14859612 6600 116672 120791 1705.25 1756 204 0 15.875 2070.8093876839 29340.212854361
38710	14866212 7572 116651 120791 1705 1756 205 486.63604736328 757.83003997803 111870.57810211 62544591.037889
38709	14873784 7514 116651 120791 1705 1756 205 235.62799072266 483.14999389648 90970.988586426 41378725.50019
vector 38828  IntersectionExampleScenario.node[492].veinsmobility  posx  ETV
vector 38829  IntersectionExampleScenario.node[492].veinsmobility  posy  ETV
vector 38830  IntersectionExampleScenario.node[492].veinsmobility  speed  ETV
vector 38831  IntersectionExampleScenario.node[492].veinsmobility  acceleration  ETV
vector 38832  IntersectionExampleScenario.node[492].veinsmobility  co2emission  ETV
38699	14881704 7877 116449 120944 1702.25 1758 224 0.973 11.093806525473 621.64440637668 2980.9859487354
38698	14889581 7856 116449 120944 1702.25 1758 224 -4.5 2.5 35.455564498901 536.5019815926
38697	14897437 8176 116430 120944 1702 1758 225 0 14.875 2298.359747475 29979.901405939
38696	14905613 8330 116411 120944 1701.75 1758 226 236.75927734375 807.09531402588 120642.45618439 69651379.471527
38695	14913943 8361 116411 120944 1701.75 1758 226 483.14999389648 483.14999389648 109191.89862061 52756065.152091
vector 38835  IntersectionExampleScenario.node[493].veinsmobility  posx  ETV
vector 38836  IntersectionExampleScenario.node[493].veinsmobility  posy  ETV
vector 38837  IntersectionExampleScenario.node[493].veinsmobility  speed  ETV
vector 38838  IntersectionExampleScenario.node[493].veinsmobility  acceleration  ETV
vector 38839  IntersectionExampleScenario.node[493].veinsmobility  co2emission  ETV
38706	14922710 7800 116672 121131 1705.25 1760.75 223 0.973 11.36141391502 615.10225288749 2901.8743823257
38705	14930510 7660 116672 121131 1705.25 1760.75 223 -4.5 2.5 38.171613693237 457.12491014044
38704	14938170 7918 116651 121131 1705 1760.75 224 0 15.25 2278.3509456739 29835.173787839
38703	14946088 8304 116632 121131 1704.75 1760.75 225 486.85000610352 809.26825714111 128612.72847748 76024055.420275
38702	14954392 8321 116632 121131 1704.75 1760.75 225 236.43078613281 483.14999389648 100465.47879028 45907817.399928
vector 38842  IntersectionExampleScenario.node[494].veinsmobility  posx  ETV
vector 38843  IntersectionExampleScenario.node[494].veinsmobility  posy  ETV
vector 38849  IntersectionExampleScenario.node[495].veinsmobility  posx  ETV
vector 38850  IntersectionExampleScenario.node[495].veinsmobility  posy  ETV
vector 38844  IntersectionExampleScenario.node[494].veinsmobility  speed  ETV
38755	14963104 5734 118237 121337 1723.75 1763.75 161 0.973 11.450879080643 530.3190231642 3124.6354080443
38754	14968838 5461 118237 121337 1723.75 1763.75 161 -3.9334182739258 2.5 37.15309715271 297.56681257079
38753	14974299 5713 118212 121337 1723.5 1763.75 162 5.6500000953674 15.375 2215.0295410156 31106.951452082
38752	14980012 6022 118189 121337 1723.25 1763.75 163 482.95642089844 785.82187652588 93206.653587341 55093796.152386
38751	14986034 6024 118189 121337 1723.25 1763.75 163 483.14999389648 735.41206359863 87465.551940918 47934012.94272
vector 38845  IntersectionExampleScenario.node[494].veinsmobility  acceleration  ETV
vector 38846  IntersectionExampleScenario.node[494].veinsmobility  co2emission  ETV
vector 38851  IntersectionExampleScenario.node[495].veinsmobility  speed  ETV
vector 38852  IntersectionExampleScenario.node[495].veinsmobility  acceleration  ETV
vector 38853  IntersectionExampleScenario.node[495].veinsmobility  co2emission  ETV
38776	14992479 5299 118655 121421 1728.25 1764.75 147 0.96997852711604 12.44402232946 506.04912342371 2868.8109951969
38775	14997778 5131 118655 121421 1728.25 1764.75 147 -3.1328277587891 2.5 42.585195541382 219.1085617946
38774	15002909 5225 118630 121421 1728 1764.75 148 5.6500000953674 16.75 2211.5957384109 33914.888382097
38773	15008134 5490 118605 121421 1727.75 1764.75 149 238.45861816406 785.82187652588 78184.179008484 44966478.142239
38772	15013624 5514 118605 121421 1727.75 1764.75 149 483.14999389648 483.14999389648 71989.349090576 34781653.573724
vector 38856  IntersectionExampleScenario.node[496].veinsmobility  posx  ETV
vector 38857  IntersectionExampleScenario.node[496].veinsmobility  posy  ETV
vector 38863  IntersectionExampleScenario.node[497].veinsmobility  posx  ETV
vector 38864  IntersectionExampleScenario.node[497].veinsmobility  posy  ETV
vector 38858  IntersectionExampleScenario.node[496].veinsmobility  speed  ETV
vector 38859  IntersectionExampleScenario.node[496].veinsmobility  acceleration  ETV
vector 38860  IntersectionExampleScenario.node[496].veinsmobility  co2emission  ETV
vector 38865  IntersectionExampleScenario.node[497].veinsmobility  speed  ETV
vector 38866  IntersectionExampleScenario.node[497].veinsmobility  acceleration  ETV
vector 38867  IntersectionExampleScenario.node[497].veinsmobility  co2emission  ETV
38762	15019950 6626 118261 122094 1724 1772 193 0.973 11.810082123732 567.77764660705 3039.0715495846
38761	15026576 6510 118261 122094 1724 1772 193 -7.8241276741028 4 39.020376205444 496.11862397056
38760	15033086 6459 118237 122094 1723.75 1772 194 0 15.875 2172.436128974 30865.245782976
38759	15039545 7144 118212 122094 1723.5 1772 195 238.10681152344 483.14999389648 86198.992645264 39079689.141742
38758	15046689 7186 118212 122094 1723.5 1772 195 184.17810058594 483.36395263672 80043.555969238 34743522.761495
38748	15053875 7586 117620 122136 1716.75 1772.5 224 0.973 11.450879080643 594.7592074944 2889.9574115465
38747	15061461 6799 117620 122136 1716.75 1772.5 224 -41.685928344727 4 37.492597579956 2065.8196117929
38746	15068260 7194 117597 122136 1716.5 1772.5 225 0 15.375 2214.5680351257 31621.156041913
38745	15075454 8363 117574 122136 1716.25 1772.5 226 486.85000610352 486.85000610352 110028.10137939 53567181.828116
38744	15083817 8354 117574 122136 1716.25 1772.5 226 235.61877441406 785.82187652588 116133.19535065 63910300.489175
38769	15092171 6553 118375 122220 1725.25 1773.5 194 0.973 12.381282254941 596.70402695686 3379.4684444218
38768	15098724 7100 118375 122220 1725.25 1773.5 194 -2.6208038330078 2.5 44.055318832397 332.25690538446
38767	15105824 7081 118352 122220 1725 1773.5 195 1.2514364719391 16.663829803467 2213.2980215549 30486.682328303
38766	15112905 7252 118329 122220 1724.75 1773.5 196 486.85000610352 486.85000610352 95422.601196289 46456493.974827
38765	15120157 7225 118329 122220 1724.75 1773.5 196 237.58813476562 785.82187652588 102201.74184418 57331592.901262
vector 38870  IntersectionExampleScenario.node[498].veinsmobility  posx  ETV
vector 38871  IntersectionExampleScenario.node[498].veinsmobility  posy  ETV
vector 38872  IntersectionExampleScenario.node[498].veinsmobility  speed  ETV
vector 38873  IntersectionExampleScenario.node[498].veinsmobility  acceleration  ETV
vector 38874  IntersectionExampleScenario.node[498].veinsmobility  co2emission  ETV
38783	15127788 6324 118929 122460 1731 1776.25 182 0.973 11.200708441096 521.98181478678 2599.1250469596
38782	15134112 6409 118929 122460 1731 1776.25 182 -2.4761581420898 2.5 37.32285118103 248.32251410673
38781	15140521 6634 118904 122460 1730.75 1776.25 183 5.2854719161987 15.289026260376 2216.0530943871 28948.543830471
38780	15147155 6808 118879 122460 1730.5 1776.25 184 486.85000610352 486.85000610352 89580.401123047 43612218.833511
38779	15153963 6790 118879 122460 1730.5 1776.25 184 236.66845703125 785.82187652588 96532.59577179 54872480.836683
vector 38877  IntersectionExampleScenario.node[499].veinsmobility  posx  ETV
vector 38878  IntersectionExampleScenario.node[499].veinsmobility  posy  ETV
vector 38879  IntersectionExampleScenario.node[499].veinsmobility  speed  ETV
vector 38880  IntersectionExampleScenario.node[499].veinsmobility  acceleration  ETV
vector 38881  IntersectionExampleScenario.node[499].veinsmobility  co2emission  ETV
vector 38884  IntersectionExampleScenario.node[500].veinsmobility  posx  ETV
vector 38885  IntersectionExampleScenario.node[500].veinsmobility  posy  ETV
vector 38886  IntersectionExampleScenario.node[500].veinsmobility  speed  ETV
vector 38887  IntersectionExampleScenario.node[500].veinsmobility  acceleration  ETV
vector 38888  IntersectionExampleScenario.node[500].veinsmobility  co2emission  ETV
38797	15161565 6227 119880 123238 1742.25 1786.5 178 0.973 12.099024792222 575.02534905744 3242.4528641559
38796	15167792 5573 119880 123238 1742.25 1786.5 178 -9.2126445770264 4 41.396924972534 525.32208356757
38795	15173365 6121 119861 123238 1742 1786.5 179 0 16.27499961853 2208.8033750057 32581.164432489
38794	15179486 6644 119842 123238 1741.75 1786.5 180 238.08117675781 785.82187652588 93472.759056091 52527086.554091
38793	15186130 6660 119842 123238 1741.75 1786.5 180 483.14999389648 483.14999389648 86966.998901367 42018104.988391
38790	15192790 6323 119825 123276 1741.5 1787 183 0.973 12.099024792222 570.56092154727 3190.301751716
38789	15199113 6053 119825 123276 1741.5 1787 183 -7.8777389526367 4 40.038900375366 509.53969327146
38788	15205166 6240 119807 123276 1741.25 1787 184 0 16.27499961853 2208.0519812107 31990.487532793
38787	15211406 6820 119788 123276 1741 1787 185 184.17810058594 486.85000610352 75722.255401611 32871671.203339
38786	15218226 6835 119788 123276 1741 1787 185 235.31896972656 486.85000610352 81782.228302002 37170040.21301
vector 38891  IntersectionExampleScenario.node[501].veinsmobility  posx  ETV
vector 38892  IntersectionExampleScenario.node[501].veinsmobility  posy  ETV
vector 38893  IntersectionExampleScenario.node[501].veinsmobility  speed  ETV
vector 38894  IntersectionExampleScenario.node[501].veinsmobility  acceleration  ETV
vector 38895  IntersectionExampleScenario.node[501].veinsmobility  co2emission  ETV
38804	15225467 5347 120586 123536 1753.5 1790.75 150 0.973 12.225202074859 515.2516866364 3218.1775964465
38803	15230814 5143 120586 123536 1753.5 1790.75 150 -3.3495063781738 2.5 41.057416915894 253.88600411508
38802	15235957 5345 120569 123536 1753.25 1790.75 151 5.6500000953674 16.449073791504 2222.2032318115 33488.71245284
38801	15241302 5608 120554 123536 1753 1790.75 152 235.86706542969 785.82187652588 79388.924003601 45499871.016627
38800	15246910 5624 120554 123536 1753 1790.75 152 483.14999389648 483.14999389648 73438.799072266 35481955.32353
vector 38898  IntersectionExampleScenario.node[502].veinsmobility  posx  ETV
vector 38899  IntersectionExampleScenario.node[502].veinsmobility  posy  ETV
vector 38900  IntersectionExampleScenario.node[502].veinsmobility  speed  ETV
vector 38901  IntersectionExampleScenario.node[502].veinsmobility  acceleration  ETV
vector 38902  IntersectionExampleScenario.node[502].veinsmobility  co2emission  ETV
38825	15252940 5711 120647 123678 1754.25 1793.25 157 0.973 11.200708441096 460.15834192339 2219.9375708414
38824	15258651 5026 120647 123678 1754.25 1793.25 157 -3.1984786987305 2.5 36.813589096069 173.16062374352
38823	15263677 5629 120626 123678 1754 1793.25 158 5.6500000953674 15.02499961853 2213.1973628998 31558.026069874
38822	15269306 5848 120605 123678 1753.75 1793.25 159 184.17810058594 732.49557495117 71354.551269531 36223643.095734
38821	15275154 5883 120605 123678 1753.75 1793.25 159 486.85000610352 486.85000610352 77409.150970459 37686645.622436
38811	15281037 5946 120605 123730 1753.75 1794.25 163 0.973 11.54047740176 492.66076450672 2472.9859812699
38810	15286983 5514 120605 123730 1753.75 1794.25 163 -4.5 2.5 38.341367721558 210.85700785838
38809	15292497 5845 120586 123730 1753.5 1794.25 164 5.6500000953674 15.5 2311.6587457657 33312.03513142
38808	15298342 6090 120569 123730 1753.25 1794.25 165 237.77923583984 810.23281097412 88491.825721741 52231076.047131
38807	15304432 6106 120569 123730 1753.25 1794.25 165 483.14999389648 483.14999389648 79719.74899292 38516596.239358
38839	15310538 5522 121131 123951 1760.75 1798.5 152 0.973 11.200708441096 477.70554509341 2338.4323701307
38838	15316060 4996 121131 123951 1760.75 1798.5 152 -3.4064865112305 2.5 39.529638290405 186.99852667278
38837	15321056 5449 121114 123951 1760.5 1798.5 153 5.6500000953674 15.60148525238 2214.9192180634 32753.817458707
38836	15326505 5669 121097 123951 1760.25 1798.5 154 184.17810058594 732.70315551758 68954.250320435 34955257.441573
38835	15332174 5699 121097 123951 1760.25 1798.5 154 486.85000610352 486.85000610352 74974.900939941 36501530.980221
vector 38905  IntersectionExampleScenario.node[503].veinsmobility  posx  ETV
vector 38906  IntersectionExampleScenario.node[503].veinsmobility  posy  ETV
vector 38907  IntersectionExampleScenario.node[503].veinsmobility  speed  ETV
vector 38908  IntersectionExampleScenario.node[503].veinsmobility  acceleration  ETV
vector 38909  IntersectionExampleScenario.node[503].veinsmobility  co2emission  ETV
38818	15338279 6320 120626 124036 1754 1800 185 0.973 11.648172402475 542.52077659328 2897.1668829332
38817	15344599 6017 120626 124036 1754 1800 185 -7.7750473022461 4 38.511121749878 480.0267975717
38816	15350616 6186 120605 124036 1753.75 1800 186 0 15.64999961853 2015.6406722069 28425.617206974
38815	15356802 6918 120586 124036 1753.5 1800 187 486.85000610352 486.85000610352 91040.951141357 44323287.61884
38814	15363720 6904 120586 124036 1753.5 1800 187 285.67608642578 785.82187652588 99891.449409485 56600858.987008
38832	15370624 6083 120849 124036 1756.75 1800 174 0.973 11.36141391502 505.88422810553 2659.5105674876
38831	15376707 6006 120849 124036 1756.75 1800 174 -4.5 2.5 36.813673019409 416.43575738682
38830	15382713 6199 120830 124036 1756.5 1800 175 0 15.25 1938.2103093211 25940.741380693
38829	15388912 6511 120810 124036 1756.25 1800 176 486.85000610352 657.74226379395 89789.607299805 46176169.840342
38828	15395423 6498 120810 124036 1756.25 1800 176 486.85000610352 800.04531860352 101615.53074646 60624367.477317
38846	15401921 4709 121358 124036 1764 1800 145 0.973 11.648172402475 347.2814278353 1612.9947646208
38845	15406630 4229 121358 124036 1764 1800 145 -7.4844179153442 4 -1.1000003814697 437.94544138732
38844	15410859 4600 121337 124036 1763.75 1800 146 0 15.64999961853 1218.1401350498 17355.140224914
38843	15415459 5411 121318 124036 1763.5 1800 147 172.9296875 476.18688964844 55760.102844238 22787678.091394
38842	15420870 5437 121318 124036 1763.5 1800 147 486.85000610352 488.3235168457 71570.347503662 34845681.261101
38853	15426307 4984 121379 124036 1764.25 1800 144 0.973 11.54047740176 503.525442545 2927.7053262073
38852	15431291 4903 121379 124036 1764.25 1800 144 -2.7317199707031 2.5 41.736623764038 283.86749003364
38851	15436194 5132 121358 124036 1764 1800 145 5.6500000953674 16.120943069458 1874.1465611458 25727.59197321
38850	15441326 5401 121337 124036 1763.75 1800 146 486.85000610352 486.85000610352 71080.100891113 34605347.552677
38849	15446727 5344 121337 124036 1763.75 1800 146 322.82476806641 785.82187652588 82139.557868958 48714719.824038
38860	15452071 4636 121679 124036 1767.75 1800 130 0.973 11.36141391502 426.02365558807 2446.4747524964
38859	15456707 4331 121679 124036 1767.75 1800 130 -3.4297657012939 2.5 36.646963119507 265.74410990691
38858	15461038 4542 121654 124036 1767.5 1800 131 5.6500000953674 15.25 1702.3617997169 23227.35567722
38857	15465580 4870 121631 124036 1767.25 1800 132 357.08215332031 483.14999389648 61482.215118408 28786663.877395
38856	15470450 4865 121631 124036 1767.25 1800 132 184.17810058594 483.14999389648 49699.769134521 20182759.384706
38867	15475315 4528 121704 124036 1768 1800 129 0.97223939240464 11.648172402475 486.5055595673 3224.0474962663
38866	15479843 4379 121704 124036 1768 1800 129 -4.1050148010254 2.5 38.681062698364 405.97900424055
38865	15484222 4486 121679 124036 1767.75 1800 130 5.6500000953674 15.64999961853 1626.9187116623 21579.313624452
38864	15488708 4844 121654 124036 1767.5 1800 131 486.85000610352 585.80517578125 65215.208404541 32541559.726701
38863	15493552 4832 121654 124036 1767.5 1800 131 486.85000610352 793.78281402588 78737.581558228 48799565.765367
38874	15498384 3555 122329 124036 1774.75 1800 102 0.973 10.756497587458 280.57110056422 1301.950859644
38873	15501939 3656 122329 124036 1774.75 1800 102 -6.7610974311829 4 -1.1000003814697 346.59127995138
38872	15505595 3666 122306 124036 1774.5 1800 103 0 14.506097793579 1172.5797077417 15397.080237935
38871	15509261 3838 122283 124036 1774.25 1800 104 493.54061889648 785.82187652588 65160.101455688 41823908.428644
38870	15513099 3848 122283 124036 1774.25 1800 104 483.14999389648 483.14999389648 50247.599365234 24277127.326626
38881	15516947 2719 122794 124036 1780.75 1800 78 0.973 11.648172402475 276.81908742567 1697.0186632954
38880	15519666 2734 122794 124036 1780.75 1800 78 -2.1361312866211 2.5 23.38471031189 183.93458679755
38879	15522400 2898 122775 124036 1780.5 1800 79 5.6500000953674 15.64999961853 1030.0985145569 14117.617102906
38878	15525298 2941 122756 124036 1780.25 1800 80 184.17810058594 438.10021972656 24828.966918945 8243853.8161307
38877	15528239 2960 122756 124036 1780.25 1800 80 486.85000610352 486.85000610352 38948.000488281 18961834.275439
38888	15531199 2538 122931 124036 1782.5 1800 71 0.973 11.327435043735 272.2599285461 1783.1697294786
38887	15533737 2522 122931 124036 1782.5 1800 71 -2.2456512451172 2.5 38.20990562439 142.82698849691
38886	15536259 2653 122910 124036 1782.25 1800 72 5.6500000953674 15.202476501465 979.60769844055 13720.446639719
38885	15538912 2691 122889 124036 1782 1800 73 545.86212158203 785.82187652588 49153.827415466 33509570.582578
38884	15541603 2699 122889 124036 1782 1800 73 483.14999389648 483.14999389648 35269.949554443 17040675.911959
38895	15544302 1844 123334 124036 1787.75 1800 50 1.2162971901818 11.200708441096 193.20782115507 1197.0917462897
38894	15546146 1812 123334 124036 1787.75 1800 50 -0.2564811706543 2.5 36.474119186401 93.900349512467
38893	15547958 1876 123315 124036 1787.5 1800 51 5.6500000953674 15.02499961853 683.06758308411 9499.2663025731
38892	15549834 1923 123295 124036 1787.25 1800 52 619.97895812988 785.82187652588 37008.286155701 26479325.683826
38891	15551757 1924 123295 124036 1787.25 1800 52 483.14999389648 483.14999389648 25123.799682617 12138563.663313
38902	15553681 1142 123634 124036 1792.5 1800 31 1.8321577376031 11.200708441096 155.60834733191 1121.383313073
38901	15554823 1020 123634 124036 1792.5 1800 31 -0.086727142333984 2.5 37.156568527222 93.767180898318
38900	15555843 1174 123619 124036 1792.25 1800 32 5.6500000953674 15.02499961853 404.66993141174 5420.7718024116
38899	15557017 1202 123604 124036 1792 1800 33 184.17810058594 280.36682128906 7416.1032714844 1697317.4804554
38898	15558219 1219 123604 124036 1792 1800 33 486.85000610352 486.85000610352 16066.050201416 7821756.6386188
38909	15559438 73 124020 124036 1799.75 1800 2 5.2162187258585 5.6304533568076 10.846672082666 58.910942799184
38908	15559511 49 124020 124036 1799.75 1800 2 2.5 2.5 5 12.5
38907	15559560 110 124005 124036 1799.5 1800 3 5.6500000953674 6.9000000953674 18.825000286102 118.90812859058
38906	15559670 148 123990 124036 1799.25 1800 4 782.99687957764 785.82187652588 3139.1281356812 2463536.799126
38905	15559818 148 123990 124036 1799.25 1800 4 483.14999389648 483.14999389648 1932.5999755859 933735.66640869
35380	15559966 626 0 124035 0 1800 31 0 20 402 5664
35381	15560592 631 0 124035 0 1800 31 0 114 1725 130717
