version 2
run nodebug-11-20200605-20:11:08-14344
attr configname nodebug
attr datetime 20200605-20:11:08
attr experiment nodebug
attr inifile omnetpp.ini
attr iterationvars ""
attr iterationvars2 $repetition=11
attr measurement ""
attr network "\"org.car2x.veins.modules.application.ExtTraCIScenarioManagerLaunchd.IntersectionExampleScenario\""
attr processid 14344
attr repetition 11
attr replication #11
attr resultdir results
attr runnumber 11
attr seedset 11
param **.coreDebug false
param **.debug false
param *.**.nic.mac1609_4.bitrate 18Mbps
param *.**.nic.mac1609_4.txPower 20mW
param *.**.nic.mac1609_4.useServiceChannel false
param *.**.nic.phy80211p.analogueModels "xmldoc(\"config.xml\")"
param *.**.nic.phy80211p.decider "xmldoc(\"config.xml\")"
param *.**.nic.phy80211p.sensitivity -89dBm
param *.**.nic.phy80211p.thermalNoise -110dBm
param *.**.nic.phy80211p.usePropagationDelay true
param *.**.nic.phy80211p.useThermalNoise true
param *.annotations.draw false
param *.connectionManager.alpha 2.0
param *.connectionManager.carrierFrequency "5.890e9 Hz"
param *.connectionManager.pMax 20mW
param *.connectionManager.sat -89dBm
param *.connectionManager.sendDirect true
param *.manager.autoShutdown true
param *.manager.host "\"localhost\""
param *.manager.launchConfig "xmldoc(\"paramics.launchd.xml\")"
param *.manager.margin 25
param *.manager.moduleDisplayString "\"\""
param *.manager.moduleName "\"node\""
param *.manager.moduleType "\"org.car2x.veins.nodes.Car\""
param *.manager.port 9999
param *.manager.updateInterval 250ms
param *.node[*0].veinsmobility.accidentCount 0
param *.node[*0].veinsmobility.accidentDuration 30s
param *.node[*0].veinsmobility.accidentStart 75s
param *.node[*].appl.LiderSelectZoneRadio 55.0
param *.node[*].appl.ShareDataZoneRadio 110.0
param *.node[*].appl.TiempoSemaforo 30.0
param *.node[*].appl.beaconInterval 1s
param *.node[*].appl.beaconPriority 3
param *.node[*].appl.dataOnSch false
param *.node[*].appl.dataPriority 2
param *.node[*].appl.debug false
param *.node[*].appl.headerLength "256 bit"
param *.node[*].appl.maxOffset 0.005s
param *.node[*].appl.sendBeacons false
param *.node[*].appl.sendData true
param *.node[*].applType "\"Dummy\""
param *.node[*].mobilityType "\"TraCIMobility\""
param *.node[*].mobilityType.debug true
param *.node[*].veinsmobility.x 0
param *.node[*].veinsmobility.y 0
param *.node[*].veinsmobility.z 1.895
param *.node[*].veinsmobilityType "\"org.car2x.veins.modules.mobility.traci.TraCIMobility\""
param *.node[*].veinsmobilityType.debug true
param *.playgroundSizeX 8500m
param *.playgroundSizeY 8500m
param *.playgroundSizeZ 50m
param *.world.use2D false
param *.world.useTorus false

scalar IntersectionExampleScenario.node[0].appl 	VehicleRemoved 	0
scalar IntersectionExampleScenario.node[0].appl 	ArrivedAtDest 	1
scalar IntersectionExampleScenario.node[0].appl 	IntersectionEnterTime 	1
scalar IntersectionExampleScenario.node[0].appl 	IntersectionExitTime 	24.340616740665
scalar IntersectionExampleScenario.node[0].appl 	NumberOfCollisions 	0
scalar IntersectionExampleScenario.node[0].nic.phy80211p 	busyTime 	0
scalar IntersectionExampleScenario.node[0].nic.mac1609_4 	ReceivedUnicastPackets 	0
scalar IntersectionExampleScenario.node[0].nic.mac1609_4 	ReceivedBroadcasts 	0
scalar IntersectionExampleScenario.node[0].nic.mac1609_4 	SentPackets 	0
scalar IntersectionExampleScenario.node[0].nic.mac1609_4 	SNIRLostPackets 	0
scalar IntersectionExampleScenario.node[0].nic.mac1609_4 	RXTXLostPackets 	0
scalar IntersectionExampleScenario.node[0].nic.mac1609_4 	TotalLostPackets 	0
scalar IntersectionExampleScenario.node[0].nic.mac1609_4 	DroppedPacketsInMac 	0
scalar IntersectionExampleScenario.node[0].nic.mac1609_4 	TooLittleTime 	0
scalar IntersectionExampleScenario.node[0].nic.mac1609_4 	TimesIntoBackoff 	0
scalar IntersectionExampleScenario.node[0].nic.mac1609_4 	SlotsBackoff 	0
scalar IntersectionExampleScenario.node[0].nic.mac1609_4 	NumInternalContention 	0
scalar IntersectionExampleScenario.node[0].nic.mac1609_4 	totalBusyTime 	0
scalar IntersectionExampleScenario.node[0].veinsmobility 	startTime 	1
scalar IntersectionExampleScenario.node[0].veinsmobility 	totalTime 	39.5
scalar IntersectionExampleScenario.node[0].veinsmobility 	stopTime 	40.75
scalar IntersectionExampleScenario.node[0].veinsmobility 	minSpeed 	5.6500000953674
scalar IntersectionExampleScenario.node[0].veinsmobility 	maxSpeed 	15.64999961853
scalar IntersectionExampleScenario.node[0].veinsmobility 	totalDistance 	550.74516096505
scalar IntersectionExampleScenario.node[0].veinsmobility 	totalCO2Emission 	122.88181662431
scalar IntersectionExampleScenario.node[2].appl 	VehicleRemoved 	0
scalar IntersectionExampleScenario.node[2].appl 	ArrivedAtDest 	1
scalar IntersectionExampleScenario.node[2].appl 	IntersectionEnterTime 	8
scalar IntersectionExampleScenario.node[2].appl 	IntersectionExitTime 	31.513592008851
scalar IntersectionExampleScenario.node[2].appl 	NumberOfCollisions 	0
scalar IntersectionExampleScenario.node[2].nic.phy80211p 	busyTime 	0
scalar IntersectionExampleScenario.node[2].nic.mac1609_4 	ReceivedUnicastPackets 	0
scalar IntersectionExampleScenario.node[2].nic.mac1609_4 	ReceivedBroadcasts 	0
scalar IntersectionExampleScenario.node[2].nic.mac1609_4 	SentPackets 	0
scalar IntersectionExampleScenario.node[2].nic.mac1609_4 	SNIRLostPackets 	0
scalar IntersectionExampleScenario.node[2].nic.mac1609_4 	RXTXLostPackets 	0
scalar IntersectionExampleScenario.node[2].nic.mac1609_4 	TotalLostPackets 	0
scalar IntersectionExampleScenario.node[2].nic.mac1609_4 	DroppedPacketsInMac 	0
scalar IntersectionExampleScenario.node[2].nic.mac1609_4 	TooLittleTime 	0
scalar IntersectionExampleScenario.node[2].nic.mac1609_4 	TimesIntoBackoff 	0
scalar IntersectionExampleScenario.node[2].nic.mac1609_4 	SlotsBackoff 	0
scalar IntersectionExampleScenario.node[2].nic.mac1609_4 	NumInternalContention 	0
scalar IntersectionExampleScenario.node[2].nic.mac1609_4 	totalBusyTime 	0
scalar IntersectionExampleScenario.node[2].veinsmobility 	startTime 	8
scalar IntersectionExampleScenario.node[2].veinsmobility 	totalTime 	40
scalar IntersectionExampleScenario.node[2].veinsmobility 	stopTime 	48.25
scalar IntersectionExampleScenario.node[2].veinsmobility 	minSpeed 	5.6500000953674
scalar IntersectionExampleScenario.node[2].veinsmobility 	maxSpeed 	15.02499961853
scalar IntersectionExampleScenario.node[2].veinsmobility 	totalDistance 	553.0140838623
scalar IntersectionExampleScenario.node[2].veinsmobility 	totalCO2Emission 	114.18256448094
scalar IntersectionExampleScenario.node[1].appl 	VehicleRemoved 	0
scalar IntersectionExampleScenario.node[1].appl 	ArrivedAtDest 	1
scalar IntersectionExampleScenario.node[1].appl 	IntersectionEnterTime 	2.75
scalar IntersectionExampleScenario.node[1].appl 	IntersectionExitTime 	35.310921450611
scalar IntersectionExampleScenario.node[1].appl 	NumberOfCollisions 	0
scalar IntersectionExampleScenario.node[1].nic.phy80211p 	busyTime 	0
scalar IntersectionExampleScenario.node[1].nic.mac1609_4 	ReceivedUnicastPackets 	0
scalar IntersectionExampleScenario.node[1].nic.mac1609_4 	ReceivedBroadcasts 	0
scalar IntersectionExampleScenario.node[1].nic.mac1609_4 	SentPackets 	0
scalar IntersectionExampleScenario.node[1].nic.mac1609_4 	SNIRLostPackets 	0
scalar IntersectionExampleScenario.node[1].nic.mac1609_4 	RXTXLostPackets 	0
scalar IntersectionExampleScenario.node[1].nic.mac1609_4 	TotalLostPackets 	0
scalar IntersectionExampleScenario.node[1].nic.mac1609_4 	DroppedPacketsInMac 	0
scalar IntersectionExampleScenario.node[1].nic.mac1609_4 	TooLittleTime 	0
scalar IntersectionExampleScenario.node[1].nic.mac1609_4 	TimesIntoBackoff 	0
scalar IntersectionExampleScenario.node[1].nic.mac1609_4 	SlotsBackoff 	0
scalar IntersectionExampleScenario.node[1].nic.mac1609_4 	NumInternalContention 	0
scalar IntersectionExampleScenario.node[1].nic.mac1609_4 	totalBusyTime 	0
scalar IntersectionExampleScenario.node[1].veinsmobility 	startTime 	2.75
scalar IntersectionExampleScenario.node[1].veinsmobility 	totalTime 	47.75
scalar IntersectionExampleScenario.node[1].veinsmobility 	stopTime 	50.75
scalar IntersectionExampleScenario.node[1].veinsmobility 	minSpeed 	0
scalar IntersectionExampleScenario.node[1].veinsmobility 	maxSpeed 	16.89999961853
scalar IntersectionExampleScenario.node[1].veinsmobility 	totalDistance 	548.3675853168
scalar IntersectionExampleScenario.node[1].veinsmobility 	totalCO2Emission 	149.45554816293
scalar IntersectionExampleScenario.node[3].appl 	VehicleRemoved 	0
scalar IntersectionExampleScenario.node[3].appl 	ArrivedAtDest 	1
scalar IntersectionExampleScenario.node[3].appl 	IntersectionEnterTime 	12
scalar IntersectionExampleScenario.node[3].appl 	IntersectionExitTime 	37.579041751887
scalar IntersectionExampleScenario.node[3].appl 	NumberOfCollisions 	0
scalar IntersectionExampleScenario.node[3].nic.phy80211p 	busyTime 	0
scalar IntersectionExampleScenario.node[3].nic.mac1609_4 	ReceivedUnicastPackets 	0
scalar IntersectionExampleScenario.node[3].nic.mac1609_4 	ReceivedBroadcasts 	0
scalar IntersectionExampleScenario.node[3].nic.mac1609_4 	SentPackets 	0
scalar IntersectionExampleScenario.node[3].nic.mac1609_4 	SNIRLostPackets 	0
scalar IntersectionExampleScenario.node[3].nic.mac1609_4 	RXTXLostPackets 	0
scalar IntersectionExampleScenario.node[3].nic.mac1609_4 	TotalLostPackets 	0
scalar IntersectionExampleScenario.node[3].nic.mac1609_4 	DroppedPacketsInMac 	0
scalar IntersectionExampleScenario.node[3].nic.mac1609_4 	TooLittleTime 	0
scalar IntersectionExampleScenario.node[3].nic.mac1609_4 	TimesIntoBackoff 	0
scalar IntersectionExampleScenario.node[3].nic.mac1609_4 	SlotsBackoff 	0
scalar IntersectionExampleScenario.node[3].nic.mac1609_4 	NumInternalContention 	0
scalar IntersectionExampleScenario.node[3].nic.mac1609_4 	totalBusyTime 	0
scalar IntersectionExampleScenario.node[3].veinsmobility 	startTime 	12
scalar IntersectionExampleScenario.node[3].veinsmobility 	totalTime 	41
scalar IntersectionExampleScenario.node[3].veinsmobility 	stopTime 	53.25
scalar IntersectionExampleScenario.node[3].veinsmobility 	minSpeed 	5.6500000953674
scalar IntersectionExampleScenario.node[3].veinsmobility 	maxSpeed 	16.27499961853
scalar IntersectionExampleScenario.node[3].veinsmobility 	totalDistance 	552.60221099854
scalar IntersectionExampleScenario.node[3].veinsmobility 	totalCO2Emission 	135.75570886105
scalar IntersectionExampleScenario.node[4].appl 	VehicleRemoved 	0
scalar IntersectionExampleScenario.node[4].appl 	ArrivedAtDest 	1
scalar IntersectionExampleScenario.node[4].appl 	IntersectionEnterTime 	14.5
scalar IntersectionExampleScenario.node[4].appl 	IntersectionExitTime 	50.519739038835
scalar IntersectionExampleScenario.node[4].appl 	NumberOfCollisions 	0
scalar IntersectionExampleScenario.node[4].nic.phy80211p 	busyTime 	0
scalar IntersectionExampleScenario.node[4].nic.mac1609_4 	ReceivedUnicastPackets 	0
scalar IntersectionExampleScenario.node[4].nic.mac1609_4 	ReceivedBroadcasts 	0
scalar IntersectionExampleScenario.node[4].nic.mac1609_4 	SentPackets 	0
scalar IntersectionExampleScenario.node[4].nic.mac1609_4 	SNIRLostPackets 	0
scalar IntersectionExampleScenario.node[4].nic.mac1609_4 	RXTXLostPackets 	0
scalar IntersectionExampleScenario.node[4].nic.mac1609_4 	TotalLostPackets 	0
scalar IntersectionExampleScenario.node[4].nic.mac1609_4 	DroppedPacketsInMac 	0
scalar IntersectionExampleScenario.node[4].nic.mac1609_4 	TooLittleTime 	0
scalar IntersectionExampleScenario.node[4].nic.mac1609_4 	TimesIntoBackoff 	0
scalar IntersectionExampleScenario.node[4].nic.mac1609_4 	SlotsBackoff 	0
scalar IntersectionExampleScenario.node[4].nic.mac1609_4 	NumInternalContention 	0
scalar IntersectionExampleScenario.node[4].nic.mac1609_4 	totalBusyTime 	0
scalar IntersectionExampleScenario.node[4].veinsmobility 	startTime 	14.5
scalar IntersectionExampleScenario.node[4].veinsmobility 	totalTime 	52.75
scalar IntersectionExampleScenario.node[4].veinsmobility 	stopTime 	67.5
scalar IntersectionExampleScenario.node[4].veinsmobility 	minSpeed 	0
scalar IntersectionExampleScenario.node[4].veinsmobility 	maxSpeed 	15.875
scalar IntersectionExampleScenario.node[4].veinsmobility 	totalDistance 	545.6419363156
scalar IntersectionExampleScenario.node[4].veinsmobility 	totalCO2Emission 	145.28324830857
scalar IntersectionExampleScenario.node[5].appl 	VehicleRemoved 	0
scalar IntersectionExampleScenario.node[5].appl 	ArrivedAtDest 	1
scalar IntersectionExampleScenario.node[5].appl 	IntersectionEnterTime 	18.75
scalar IntersectionExampleScenario.node[5].appl 	IntersectionExitTime 	50.539849850145
scalar IntersectionExampleScenario.node[5].appl 	NumberOfCollisions 	0
scalar IntersectionExampleScenario.node[5].nic.phy80211p 	busyTime 	0
scalar IntersectionExampleScenario.node[5].nic.mac1609_4 	ReceivedUnicastPackets 	0
scalar IntersectionExampleScenario.node[5].nic.mac1609_4 	ReceivedBroadcasts 	0
scalar IntersectionExampleScenario.node[5].nic.mac1609_4 	SentPackets 	0
scalar IntersectionExampleScenario.node[5].nic.mac1609_4 	SNIRLostPackets 	0
scalar IntersectionExampleScenario.node[5].nic.mac1609_4 	RXTXLostPackets 	0
scalar IntersectionExampleScenario.node[5].nic.mac1609_4 	TotalLostPackets 	0
scalar IntersectionExampleScenario.node[5].nic.mac1609_4 	DroppedPacketsInMac 	0
scalar IntersectionExampleScenario.node[5].nic.mac1609_4 	TooLittleTime 	0
scalar IntersectionExampleScenario.node[5].nic.mac1609_4 	TimesIntoBackoff 	0
scalar IntersectionExampleScenario.node[5].nic.mac1609_4 	SlotsBackoff 	0
scalar IntersectionExampleScenario.node[5].nic.mac1609_4 	NumInternalContention 	0
scalar IntersectionExampleScenario.node[5].nic.mac1609_4 	totalBusyTime 	0
scalar IntersectionExampleScenario.node[5].veinsmobility 	startTime 	18.75
scalar IntersectionExampleScenario.node[5].veinsmobility 	totalTime 	49
scalar IntersectionExampleScenario.node[5].veinsmobility 	stopTime 	68
scalar IntersectionExampleScenario.node[5].veinsmobility 	minSpeed 	0
scalar IntersectionExampleScenario.node[5].veinsmobility 	maxSpeed 	15.25
scalar IntersectionExampleScenario.node[5].veinsmobility 	totalDistance 	544.38066769988
scalar IntersectionExampleScenario.node[5].veinsmobility 	totalCO2Emission 	136.77866949431
scalar IntersectionExampleScenario.node[6].appl 	VehicleRemoved 	0
scalar IntersectionExampleScenario.node[6].appl 	ArrivedAtDest 	1
scalar IntersectionExampleScenario.node[6].appl 	IntersectionEnterTime 	19.5
scalar IntersectionExampleScenario.node[6].appl 	IntersectionExitTime 	53.074942924286
scalar IntersectionExampleScenario.node[6].appl 	NumberOfCollisions 	0
scalar IntersectionExampleScenario.node[6].nic.phy80211p 	busyTime 	0
scalar IntersectionExampleScenario.node[6].nic.mac1609_4 	ReceivedUnicastPackets 	0
scalar IntersectionExampleScenario.node[6].nic.mac1609_4 	ReceivedBroadcasts 	0
scalar IntersectionExampleScenario.node[6].nic.mac1609_4 	SentPackets 	0
scalar IntersectionExampleScenario.node[6].nic.mac1609_4 	SNIRLostPackets 	0
scalar IntersectionExampleScenario.node[6].nic.mac1609_4 	RXTXLostPackets 	0
scalar IntersectionExampleScenario.node[6].nic.mac1609_4 	TotalLostPackets 	0
scalar IntersectionExampleScenario.node[6].nic.mac1609_4 	DroppedPacketsInMac 	0
scalar IntersectionExampleScenario.node[6].nic.mac1609_4 	TooLittleTime 	0
scalar IntersectionExampleScenario.node[6].nic.mac1609_4 	TimesIntoBackoff 	0
scalar IntersectionExampleScenario.node[6].nic.mac1609_4 	SlotsBackoff 	0
scalar IntersectionExampleScenario.node[6].nic.mac1609_4 	NumInternalContention 	0
scalar IntersectionExampleScenario.node[6].nic.mac1609_4 	totalBusyTime 	0
scalar IntersectionExampleScenario.node[6].veinsmobility 	startTime 	19.5
scalar IntersectionExampleScenario.node[6].veinsmobility 	totalTime 	50.5
scalar IntersectionExampleScenario.node[6].veinsmobility 	stopTime 	70.25
scalar IntersectionExampleScenario.node[6].veinsmobility 	minSpeed 	0
scalar IntersectionExampleScenario.node[6].veinsmobility 	maxSpeed 	15.02499961853
scalar IntersectionExampleScenario.node[6].veinsmobility 	totalDistance 	549.4586761368
scalar IntersectionExampleScenario.node[6].veinsmobility 	totalCO2Emission 	135.21887841128
scalar IntersectionExampleScenario.node[9].appl 	VehicleRemoved 	0
scalar IntersectionExampleScenario.node[9].appl 	ArrivedAtDest 	1
scalar IntersectionExampleScenario.node[9].appl 	IntersectionEnterTime 	36
scalar IntersectionExampleScenario.node[9].appl 	IntersectionExitTime 	58.849554468878
scalar IntersectionExampleScenario.node[9].appl 	NumberOfCollisions 	0
scalar IntersectionExampleScenario.node[9].nic.phy80211p 	busyTime 	0
scalar IntersectionExampleScenario.node[9].nic.mac1609_4 	ReceivedUnicastPackets 	0
scalar IntersectionExampleScenario.node[9].nic.mac1609_4 	ReceivedBroadcasts 	0
scalar IntersectionExampleScenario.node[9].nic.mac1609_4 	SentPackets 	0
scalar IntersectionExampleScenario.node[9].nic.mac1609_4 	SNIRLostPackets 	0
scalar IntersectionExampleScenario.node[9].nic.mac1609_4 	RXTXLostPackets 	0
scalar IntersectionExampleScenario.node[9].nic.mac1609_4 	TotalLostPackets 	0
scalar IntersectionExampleScenario.node[9].nic.mac1609_4 	DroppedPacketsInMac 	0
scalar IntersectionExampleScenario.node[9].nic.mac1609_4 	TooLittleTime 	0
scalar IntersectionExampleScenario.node[9].nic.mac1609_4 	TimesIntoBackoff 	0
scalar IntersectionExampleScenario.node[9].nic.mac1609_4 	SlotsBackoff 	0
scalar IntersectionExampleScenario.node[9].nic.mac1609_4 	NumInternalContention 	0
scalar IntersectionExampleScenario.node[9].nic.mac1609_4 	totalBusyTime 	0
scalar IntersectionExampleScenario.node[9].veinsmobility 	startTime 	36
scalar IntersectionExampleScenario.node[9].veinsmobility 	totalTime 	38.75
scalar IntersectionExampleScenario.node[9].veinsmobility 	stopTime 	75
scalar IntersectionExampleScenario.node[9].veinsmobility 	minSpeed 	5.6500000953674
scalar IntersectionExampleScenario.node[9].veinsmobility 	maxSpeed 	16.27499961853
scalar IntersectionExampleScenario.node[9].veinsmobility 	totalDistance 	549.19149904114
scalar IntersectionExampleScenario.node[9].veinsmobility 	totalCO2Emission 	127.85707682447
scalar IntersectionExampleScenario.node[8].appl 	VehicleRemoved 	0
scalar IntersectionExampleScenario.node[8].appl 	ArrivedAtDest 	1
scalar IntersectionExampleScenario.node[8].appl 	IntersectionEnterTime 	34.5
scalar IntersectionExampleScenario.node[8].appl 	IntersectionExitTime 	66.368637799751
scalar IntersectionExampleScenario.node[8].appl 	NumberOfCollisions 	0
scalar IntersectionExampleScenario.node[8].nic.phy80211p 	busyTime 	0
scalar IntersectionExampleScenario.node[8].nic.mac1609_4 	ReceivedUnicastPackets 	0
scalar IntersectionExampleScenario.node[8].nic.mac1609_4 	ReceivedBroadcasts 	0
scalar IntersectionExampleScenario.node[8].nic.mac1609_4 	SentPackets 	0
scalar IntersectionExampleScenario.node[8].nic.mac1609_4 	SNIRLostPackets 	0
scalar IntersectionExampleScenario.node[8].nic.mac1609_4 	RXTXLostPackets 	0
scalar IntersectionExampleScenario.node[8].nic.mac1609_4 	TotalLostPackets 	0
scalar IntersectionExampleScenario.node[8].nic.mac1609_4 	DroppedPacketsInMac 	0
scalar IntersectionExampleScenario.node[8].nic.mac1609_4 	TooLittleTime 	0
scalar IntersectionExampleScenario.node[8].nic.mac1609_4 	TimesIntoBackoff 	0
scalar IntersectionExampleScenario.node[8].nic.mac1609_4 	SlotsBackoff 	0
scalar IntersectionExampleScenario.node[8].nic.mac1609_4 	NumInternalContention 	0
scalar IntersectionExampleScenario.node[8].nic.mac1609_4 	totalBusyTime 	0
scalar IntersectionExampleScenario.node[8].veinsmobility 	startTime 	34.5
scalar IntersectionExampleScenario.node[8].veinsmobility 	totalTime 	47.25
scalar IntersectionExampleScenario.node[8].veinsmobility 	stopTime 	82
scalar IntersectionExampleScenario.node[8].veinsmobility 	minSpeed 	0
scalar IntersectionExampleScenario.node[8].veinsmobility 	maxSpeed 	16.27499961853
scalar IntersectionExampleScenario.node[8].veinsmobility 	totalDistance 	551.97518920898
scalar IntersectionExampleScenario.node[8].veinsmobility 	totalCO2Emission 	143.91969475557
scalar IntersectionExampleScenario.node[7].appl 	VehicleRemoved 	0
scalar IntersectionExampleScenario.node[7].appl 	ArrivedAtDest 	1
scalar IntersectionExampleScenario.node[7].appl 	IntersectionEnterTime 	27.5
scalar IntersectionExampleScenario.node[7].appl 	IntersectionExitTime 	65.605997375184
scalar IntersectionExampleScenario.node[7].appl 	NumberOfCollisions 	0
scalar IntersectionExampleScenario.node[7].nic.phy80211p 	busyTime 	0
scalar IntersectionExampleScenario.node[7].nic.mac1609_4 	ReceivedUnicastPackets 	0
scalar IntersectionExampleScenario.node[7].nic.mac1609_4 	ReceivedBroadcasts 	0
scalar IntersectionExampleScenario.node[7].nic.mac1609_4 	SentPackets 	0
scalar IntersectionExampleScenario.node[7].nic.mac1609_4 	SNIRLostPackets 	0
scalar IntersectionExampleScenario.node[7].nic.mac1609_4 	RXTXLostPackets 	0
scalar IntersectionExampleScenario.node[7].nic.mac1609_4 	TotalLostPackets 	0
scalar IntersectionExampleScenario.node[7].nic.mac1609_4 	DroppedPacketsInMac 	0
scalar IntersectionExampleScenario.node[7].nic.mac1609_4 	TooLittleTime 	0
scalar IntersectionExampleScenario.node[7].nic.mac1609_4 	TimesIntoBackoff 	0
scalar IntersectionExampleScenario.node[7].nic.mac1609_4 	SlotsBackoff 	0
scalar IntersectionExampleScenario.node[7].nic.mac1609_4 	NumInternalContention 	0
scalar IntersectionExampleScenario.node[7].nic.mac1609_4 	totalBusyTime 	0
scalar IntersectionExampleScenario.node[7].veinsmobility 	startTime 	27.5
scalar IntersectionExampleScenario.node[7].veinsmobility 	totalTime 	55
scalar IntersectionExampleScenario.node[7].veinsmobility 	stopTime 	82.75
scalar IntersectionExampleScenario.node[7].veinsmobility 	minSpeed 	0
scalar IntersectionExampleScenario.node[7].veinsmobility 	maxSpeed 	15.25
scalar IntersectionExampleScenario.node[7].veinsmobility 	totalDistance 	545.54165555388
scalar IntersectionExampleScenario.node[7].veinsmobility 	totalCO2Emission 	145.76695893218
scalar IntersectionExampleScenario.node[10].appl 	VehicleRemoved 	0
scalar IntersectionExampleScenario.node[10].appl 	ArrivedAtDest 	1
scalar IntersectionExampleScenario.node[10].appl 	IntersectionEnterTime 	40
scalar IntersectionExampleScenario.node[10].appl 	IntersectionExitTime 	68.309556646127
scalar IntersectionExampleScenario.node[10].appl 	NumberOfCollisions 	0
scalar IntersectionExampleScenario.node[10].nic.phy80211p 	busyTime 	0
scalar IntersectionExampleScenario.node[10].nic.mac1609_4 	ReceivedUnicastPackets 	0
scalar IntersectionExampleScenario.node[10].nic.mac1609_4 	ReceivedBroadcasts 	0
scalar IntersectionExampleScenario.node[10].nic.mac1609_4 	SentPackets 	0
scalar IntersectionExampleScenario.node[10].nic.mac1609_4 	SNIRLostPackets 	0
scalar IntersectionExampleScenario.node[10].nic.mac1609_4 	RXTXLostPackets 	0
scalar IntersectionExampleScenario.node[10].nic.mac1609_4 	TotalLostPackets 	0
scalar IntersectionExampleScenario.node[10].nic.mac1609_4 	DroppedPacketsInMac 	0
scalar IntersectionExampleScenario.node[10].nic.mac1609_4 	TooLittleTime 	0
scalar IntersectionExampleScenario.node[10].nic.mac1609_4 	TimesIntoBackoff 	0
scalar IntersectionExampleScenario.node[10].nic.mac1609_4 	SlotsBackoff 	0
scalar IntersectionExampleScenario.node[10].nic.mac1609_4 	NumInternalContention 	0
scalar IntersectionExampleScenario.node[10].nic.mac1609_4 	totalBusyTime 	0
scalar IntersectionExampleScenario.node[10].veinsmobility 	startTime 	40
scalar IntersectionExampleScenario.node[10].veinsmobility 	totalTime 	45
scalar IntersectionExampleScenario.node[10].veinsmobility 	stopTime 	85.25
scalar IntersectionExampleScenario.node[10].veinsmobility 	minSpeed 	4.0823378562927
scalar IntersectionExampleScenario.node[10].veinsmobility 	maxSpeed 	15.64999961853
scalar IntersectionExampleScenario.node[10].veinsmobility 	totalDistance 	545.56138801134
scalar IntersectionExampleScenario.node[10].veinsmobility 	totalCO2Emission 	133.50601548631
scalar IntersectionExampleScenario.node[11].appl 	VehicleRemoved 	0
scalar IntersectionExampleScenario.node[11].appl 	ArrivedAtDest 	1
scalar IntersectionExampleScenario.node[11].appl 	IntersectionEnterTime 	49.75
scalar IntersectionExampleScenario.node[11].appl 	IntersectionExitTime 	72.834691348893
scalar IntersectionExampleScenario.node[11].appl 	NumberOfCollisions 	0
scalar IntersectionExampleScenario.node[11].nic.phy80211p 	busyTime 	0
scalar IntersectionExampleScenario.node[11].nic.mac1609_4 	ReceivedUnicastPackets 	0
scalar IntersectionExampleScenario.node[11].nic.mac1609_4 	ReceivedBroadcasts 	0
scalar IntersectionExampleScenario.node[11].nic.mac1609_4 	SentPackets 	0
scalar IntersectionExampleScenario.node[11].nic.mac1609_4 	SNIRLostPackets 	0
scalar IntersectionExampleScenario.node[11].nic.mac1609_4 	RXTXLostPackets 	0
scalar IntersectionExampleScenario.node[11].nic.mac1609_4 	TotalLostPackets 	0
scalar IntersectionExampleScenario.node[11].nic.mac1609_4 	DroppedPacketsInMac 	0
scalar IntersectionExampleScenario.node[11].nic.mac1609_4 	TooLittleTime 	0
scalar IntersectionExampleScenario.node[11].nic.mac1609_4 	TimesIntoBackoff 	0
scalar IntersectionExampleScenario.node[11].nic.mac1609_4 	SlotsBackoff 	0
scalar IntersectionExampleScenario.node[11].nic.mac1609_4 	NumInternalContention 	0
scalar IntersectionExampleScenario.node[11].nic.mac1609_4 	totalBusyTime 	0
scalar IntersectionExampleScenario.node[11].veinsmobility 	startTime 	49.75
scalar IntersectionExampleScenario.node[11].veinsmobility 	totalTime 	39
scalar IntersectionExampleScenario.node[11].veinsmobility 	stopTime 	89
scalar IntersectionExampleScenario.node[11].veinsmobility 	minSpeed 	5.6500000953674
scalar IntersectionExampleScenario.node[11].veinsmobility 	maxSpeed 	15.941207885742
scalar IntersectionExampleScenario.node[11].veinsmobility 	totalDistance 	550.73263517088
scalar IntersectionExampleScenario.node[11].veinsmobility 	totalCO2Emission 	126.29626205605
scalar IntersectionExampleScenario.node[12].appl 	VehicleRemoved 	0
scalar IntersectionExampleScenario.node[12].appl 	ArrivedAtDest 	1
scalar IntersectionExampleScenario.node[12].appl 	IntersectionEnterTime 	51.25
scalar IntersectionExampleScenario.node[12].appl 	IntersectionExitTime 	76.006335048907
scalar IntersectionExampleScenario.node[12].appl 	NumberOfCollisions 	0
scalar IntersectionExampleScenario.node[12].nic.phy80211p 	busyTime 	0
scalar IntersectionExampleScenario.node[12].nic.mac1609_4 	ReceivedUnicastPackets 	0
scalar IntersectionExampleScenario.node[12].nic.mac1609_4 	ReceivedBroadcasts 	0
scalar IntersectionExampleScenario.node[12].nic.mac1609_4 	SentPackets 	0
scalar IntersectionExampleScenario.node[12].nic.mac1609_4 	SNIRLostPackets 	0
scalar IntersectionExampleScenario.node[12].nic.mac1609_4 	RXTXLostPackets 	0
scalar IntersectionExampleScenario.node[12].nic.mac1609_4 	TotalLostPackets 	0
scalar IntersectionExampleScenario.node[12].nic.mac1609_4 	DroppedPacketsInMac 	0
scalar IntersectionExampleScenario.node[12].nic.mac1609_4 	TooLittleTime 	0
scalar IntersectionExampleScenario.node[12].nic.mac1609_4 	TimesIntoBackoff 	0
scalar IntersectionExampleScenario.node[12].nic.mac1609_4 	SlotsBackoff 	0
scalar IntersectionExampleScenario.node[12].nic.mac1609_4 	NumInternalContention 	0
scalar IntersectionExampleScenario.node[12].nic.mac1609_4 	totalBusyTime 	0
scalar IntersectionExampleScenario.node[12].veinsmobility 	startTime 	51.25
scalar IntersectionExampleScenario.node[12].veinsmobility 	totalTime 	41.5
scalar IntersectionExampleScenario.node[12].veinsmobility 	stopTime 	93
scalar IntersectionExampleScenario.node[12].veinsmobility 	minSpeed 	5.6500000953674
scalar IntersectionExampleScenario.node[12].veinsmobility 	maxSpeed 	15.875
scalar IntersectionExampleScenario.node[12].veinsmobility 	totalDistance 	566.26566677069
scalar IntersectionExampleScenario.node[12].veinsmobility 	totalCO2Emission 	134.60293603133
scalar IntersectionExampleScenario.node[13].appl 	VehicleRemoved 	0
scalar IntersectionExampleScenario.node[13].appl 	ArrivedAtDest 	1
scalar IntersectionExampleScenario.node[13].appl 	IntersectionEnterTime 	52.25
scalar IntersectionExampleScenario.node[13].appl 	IntersectionExitTime 	82.33318600303
scalar IntersectionExampleScenario.node[13].appl 	NumberOfCollisions 	0
scalar IntersectionExampleScenario.node[13].nic.phy80211p 	busyTime 	0
scalar IntersectionExampleScenario.node[13].nic.mac1609_4 	ReceivedUnicastPackets 	0
scalar IntersectionExampleScenario.node[13].nic.mac1609_4 	ReceivedBroadcasts 	0
scalar IntersectionExampleScenario.node[13].nic.mac1609_4 	SentPackets 	0
scalar IntersectionExampleScenario.node[13].nic.mac1609_4 	SNIRLostPackets 	0
scalar IntersectionExampleScenario.node[13].nic.mac1609_4 	RXTXLostPackets 	0
scalar IntersectionExampleScenario.node[13].nic.mac1609_4 	TotalLostPackets 	0
scalar IntersectionExampleScenario.node[13].nic.mac1609_4 	DroppedPacketsInMac 	0
scalar IntersectionExampleScenario.node[13].nic.mac1609_4 	TooLittleTime 	0
scalar IntersectionExampleScenario.node[13].nic.mac1609_4 	TimesIntoBackoff 	0
scalar IntersectionExampleScenario.node[13].nic.mac1609_4 	SlotsBackoff 	0
scalar IntersectionExampleScenario.node[13].nic.mac1609_4 	NumInternalContention 	0
scalar IntersectionExampleScenario.node[13].nic.mac1609_4 	totalBusyTime 	0
scalar IntersectionExampleScenario.node[13].veinsmobility 	startTime 	52.25
scalar IntersectionExampleScenario.node[13].veinsmobility 	totalTime 	45
scalar IntersectionExampleScenario.node[13].veinsmobility 	stopTime 	97.5
scalar IntersectionExampleScenario.node[13].veinsmobility 	minSpeed 	0
scalar IntersectionExampleScenario.node[13].veinsmobility 	maxSpeed 	16.89999961853
scalar IntersectionExampleScenario.node[13].veinsmobility 	totalDistance 	552.38150787354
scalar IntersectionExampleScenario.node[13].veinsmobility 	totalCO2Emission 	147.93448402481
scalar IntersectionExampleScenario.node[15].appl 	VehicleRemoved 	0
scalar IntersectionExampleScenario.node[15].appl 	ArrivedAtDest 	1
scalar IntersectionExampleScenario.node[15].appl 	IntersectionEnterTime 	60
scalar IntersectionExampleScenario.node[15].appl 	IntersectionExitTime 	82.840070691775
scalar IntersectionExampleScenario.node[15].appl 	NumberOfCollisions 	0
scalar IntersectionExampleScenario.node[15].nic.phy80211p 	busyTime 	0
scalar IntersectionExampleScenario.node[15].nic.mac1609_4 	ReceivedUnicastPackets 	0
scalar IntersectionExampleScenario.node[15].nic.mac1609_4 	ReceivedBroadcasts 	0
scalar IntersectionExampleScenario.node[15].nic.mac1609_4 	SentPackets 	0
scalar IntersectionExampleScenario.node[15].nic.mac1609_4 	SNIRLostPackets 	0
scalar IntersectionExampleScenario.node[15].nic.mac1609_4 	RXTXLostPackets 	0
scalar IntersectionExampleScenario.node[15].nic.mac1609_4 	TotalLostPackets 	0
scalar IntersectionExampleScenario.node[15].nic.mac1609_4 	DroppedPacketsInMac 	0
scalar IntersectionExampleScenario.node[15].nic.mac1609_4 	TooLittleTime 	0
scalar IntersectionExampleScenario.node[15].nic.mac1609_4 	TimesIntoBackoff 	0
scalar IntersectionExampleScenario.node[15].nic.mac1609_4 	SlotsBackoff 	0
scalar IntersectionExampleScenario.node[15].nic.mac1609_4 	NumInternalContention 	0
scalar IntersectionExampleScenario.node[15].nic.mac1609_4 	totalBusyTime 	0
scalar IntersectionExampleScenario.node[15].veinsmobility 	startTime 	60
scalar IntersectionExampleScenario.node[15].veinsmobility 	totalTime 	38.5
scalar IntersectionExampleScenario.node[15].veinsmobility 	stopTime 	98.75
scalar IntersectionExampleScenario.node[15].veinsmobility 	minSpeed 	5.6500000953674
scalar IntersectionExampleScenario.node[15].veinsmobility 	maxSpeed 	16.89999961853
scalar IntersectionExampleScenario.node[15].veinsmobility 	totalDistance 	543.46847763448
scalar IntersectionExampleScenario.node[15].veinsmobility 	totalCO2Emission 	134.42334585617
scalar IntersectionExampleScenario.node[14].appl 	VehicleRemoved 	0
scalar IntersectionExampleScenario.node[14].appl 	ArrivedAtDest 	1
scalar IntersectionExampleScenario.node[14].appl 	IntersectionEnterTime 	57.5
scalar IntersectionExampleScenario.node[14].appl 	IntersectionExitTime 	84.526850448048
scalar IntersectionExampleScenario.node[14].appl 	NumberOfCollisions 	0
scalar IntersectionExampleScenario.node[14].nic.phy80211p 	busyTime 	0
scalar IntersectionExampleScenario.node[14].nic.mac1609_4 	ReceivedUnicastPackets 	0
scalar IntersectionExampleScenario.node[14].nic.mac1609_4 	ReceivedBroadcasts 	0
scalar IntersectionExampleScenario.node[14].nic.mac1609_4 	SentPackets 	0
scalar IntersectionExampleScenario.node[14].nic.mac1609_4 	SNIRLostPackets 	0
scalar IntersectionExampleScenario.node[14].nic.mac1609_4 	RXTXLostPackets 	0
scalar IntersectionExampleScenario.node[14].nic.mac1609_4 	TotalLostPackets 	0
scalar IntersectionExampleScenario.node[14].nic.mac1609_4 	DroppedPacketsInMac 	0
scalar IntersectionExampleScenario.node[14].nic.mac1609_4 	TooLittleTime 	0
scalar IntersectionExampleScenario.node[14].nic.mac1609_4 	TimesIntoBackoff 	0
scalar IntersectionExampleScenario.node[14].nic.mac1609_4 	SlotsBackoff 	0
scalar IntersectionExampleScenario.node[14].nic.mac1609_4 	NumInternalContention 	0
scalar IntersectionExampleScenario.node[14].nic.mac1609_4 	totalBusyTime 	0
scalar IntersectionExampleScenario.node[14].veinsmobility 	startTime 	57.5
scalar IntersectionExampleScenario.node[14].veinsmobility 	totalTime 	43.75
scalar IntersectionExampleScenario.node[14].veinsmobility 	stopTime 	101.5
scalar IntersectionExampleScenario.node[14].veinsmobility 	minSpeed 	5.0253825187683
scalar IntersectionExampleScenario.node[14].veinsmobility 	maxSpeed 	15.64999961853
scalar IntersectionExampleScenario.node[14].veinsmobility 	totalDistance 	548.47871428198
scalar IntersectionExampleScenario.node[14].veinsmobility 	totalCO2Emission 	136.83824871508
scalar IntersectionExampleScenario.node[16].appl 	VehicleRemoved 	0
scalar IntersectionExampleScenario.node[16].appl 	ArrivedAtDest 	1
scalar IntersectionExampleScenario.node[16].appl 	IntersectionEnterTime 	61.5
scalar IntersectionExampleScenario.node[16].appl 	IntersectionExitTime 	87.331347574131
scalar IntersectionExampleScenario.node[16].appl 	NumberOfCollisions 	0
scalar IntersectionExampleScenario.node[16].nic.phy80211p 	busyTime 	0
scalar IntersectionExampleScenario.node[16].nic.mac1609_4 	ReceivedUnicastPackets 	0
scalar IntersectionExampleScenario.node[16].nic.mac1609_4 	ReceivedBroadcasts 	0
scalar IntersectionExampleScenario.node[16].nic.mac1609_4 	SentPackets 	0
scalar IntersectionExampleScenario.node[16].nic.mac1609_4 	SNIRLostPackets 	0
scalar IntersectionExampleScenario.node[16].nic.mac1609_4 	RXTXLostPackets 	0
scalar IntersectionExampleScenario.node[16].nic.mac1609_4 	TotalLostPackets 	0
scalar IntersectionExampleScenario.node[16].nic.mac1609_4 	DroppedPacketsInMac 	0
scalar IntersectionExampleScenario.node[16].nic.mac1609_4 	TooLittleTime 	0
scalar IntersectionExampleScenario.node[16].nic.mac1609_4 	TimesIntoBackoff 	0
scalar IntersectionExampleScenario.node[16].nic.mac1609_4 	SlotsBackoff 	0
scalar IntersectionExampleScenario.node[16].nic.mac1609_4 	NumInternalContention 	0
scalar IntersectionExampleScenario.node[16].nic.mac1609_4 	totalBusyTime 	0
scalar IntersectionExampleScenario.node[16].veinsmobility 	startTime 	61.5
scalar IntersectionExampleScenario.node[16].veinsmobility 	totalTime 	42.25
scalar IntersectionExampleScenario.node[16].veinsmobility 	stopTime 	104
scalar IntersectionExampleScenario.node[16].veinsmobility 	minSpeed 	5.6500000953674
scalar IntersectionExampleScenario.node[16].veinsmobility 	maxSpeed 	15.239858627319
scalar IntersectionExampleScenario.node[16].veinsmobility 	totalDistance 	556.99644024208
scalar IntersectionExampleScenario.node[16].veinsmobility 	totalCO2Emission 	129.76847166655
scalar IntersectionExampleScenario.node[17].appl 	VehicleRemoved 	0
scalar IntersectionExampleScenario.node[17].appl 	ArrivedAtDest 	1
scalar IntersectionExampleScenario.node[17].appl 	IntersectionEnterTime 	64.5
scalar IntersectionExampleScenario.node[17].appl 	IntersectionExitTime 	88.28556001134
scalar IntersectionExampleScenario.node[17].appl 	NumberOfCollisions 	0
scalar IntersectionExampleScenario.node[17].nic.phy80211p 	busyTime 	0
scalar IntersectionExampleScenario.node[17].nic.mac1609_4 	ReceivedUnicastPackets 	0
scalar IntersectionExampleScenario.node[17].nic.mac1609_4 	ReceivedBroadcasts 	0
scalar IntersectionExampleScenario.node[17].nic.mac1609_4 	SentPackets 	0
scalar IntersectionExampleScenario.node[17].nic.mac1609_4 	SNIRLostPackets 	0
scalar IntersectionExampleScenario.node[17].nic.mac1609_4 	RXTXLostPackets 	0
scalar IntersectionExampleScenario.node[17].nic.mac1609_4 	TotalLostPackets 	0
scalar IntersectionExampleScenario.node[17].nic.mac1609_4 	DroppedPacketsInMac 	0
scalar IntersectionExampleScenario.node[17].nic.mac1609_4 	TooLittleTime 	0
scalar IntersectionExampleScenario.node[17].nic.mac1609_4 	TimesIntoBackoff 	0
scalar IntersectionExampleScenario.node[17].nic.mac1609_4 	SlotsBackoff 	0
scalar IntersectionExampleScenario.node[17].nic.mac1609_4 	NumInternalContention 	0
scalar IntersectionExampleScenario.node[17].nic.mac1609_4 	totalBusyTime 	0
scalar IntersectionExampleScenario.node[17].veinsmobility 	startTime 	64.5
scalar IntersectionExampleScenario.node[17].veinsmobility 	totalTime 	40.75
scalar IntersectionExampleScenario.node[17].veinsmobility 	stopTime 	105.5
scalar IntersectionExampleScenario.node[17].veinsmobility 	minSpeed 	5.5700716972351
scalar IntersectionExampleScenario.node[17].veinsmobility 	maxSpeed 	15.226031303406
scalar IntersectionExampleScenario.node[17].veinsmobility 	totalDistance 	544.63933336578
scalar IntersectionExampleScenario.node[17].veinsmobility 	totalCO2Emission 	125.79025035524
scalar IntersectionExampleScenario.node[18].appl 	VehicleRemoved 	0
scalar IntersectionExampleScenario.node[18].appl 	ArrivedAtDest 	1
scalar IntersectionExampleScenario.node[18].appl 	IntersectionEnterTime 	68.25
scalar IntersectionExampleScenario.node[18].appl 	IntersectionExitTime 	91.121731277439
scalar IntersectionExampleScenario.node[18].appl 	NumberOfCollisions 	0
scalar IntersectionExampleScenario.node[18].nic.phy80211p 	busyTime 	0
scalar IntersectionExampleScenario.node[18].nic.mac1609_4 	ReceivedUnicastPackets 	0
scalar IntersectionExampleScenario.node[18].nic.mac1609_4 	ReceivedBroadcasts 	0
scalar IntersectionExampleScenario.node[18].nic.mac1609_4 	SentPackets 	0
scalar IntersectionExampleScenario.node[18].nic.mac1609_4 	SNIRLostPackets 	0
scalar IntersectionExampleScenario.node[18].nic.mac1609_4 	RXTXLostPackets 	0
scalar IntersectionExampleScenario.node[18].nic.mac1609_4 	TotalLostPackets 	0
scalar IntersectionExampleScenario.node[18].nic.mac1609_4 	DroppedPacketsInMac 	0
scalar IntersectionExampleScenario.node[18].nic.mac1609_4 	TooLittleTime 	0
scalar IntersectionExampleScenario.node[18].nic.mac1609_4 	TimesIntoBackoff 	0
scalar IntersectionExampleScenario.node[18].nic.mac1609_4 	SlotsBackoff 	0
scalar IntersectionExampleScenario.node[18].nic.mac1609_4 	NumInternalContention 	0
scalar IntersectionExampleScenario.node[18].nic.mac1609_4 	totalBusyTime 	0
scalar IntersectionExampleScenario.node[18].veinsmobility 	startTime 	68.25
scalar IntersectionExampleScenario.node[18].veinsmobility 	totalTime 	38.75
scalar IntersectionExampleScenario.node[18].veinsmobility 	stopTime 	107.25
scalar IntersectionExampleScenario.node[18].veinsmobility 	minSpeed 	5.6500000953674
scalar IntersectionExampleScenario.node[18].veinsmobility 	maxSpeed 	16.5
scalar IntersectionExampleScenario.node[18].veinsmobility 	totalDistance 	543.657522767
scalar IntersectionExampleScenario.node[18].veinsmobility 	totalCO2Emission 	132.10823664532
scalar IntersectionExampleScenario.node[19].appl 	VehicleRemoved 	0
scalar IntersectionExampleScenario.node[19].appl 	ArrivedAtDest 	1
scalar IntersectionExampleScenario.node[19].appl 	IntersectionEnterTime 	84.25
scalar IntersectionExampleScenario.node[19].appl 	IntersectionExitTime 	107.76744387313
scalar IntersectionExampleScenario.node[19].appl 	NumberOfCollisions 	0
scalar IntersectionExampleScenario.node[19].nic.phy80211p 	busyTime 	0
scalar IntersectionExampleScenario.node[19].nic.mac1609_4 	ReceivedUnicastPackets 	0
scalar IntersectionExampleScenario.node[19].nic.mac1609_4 	ReceivedBroadcasts 	0
scalar IntersectionExampleScenario.node[19].nic.mac1609_4 	SentPackets 	0
scalar IntersectionExampleScenario.node[19].nic.mac1609_4 	SNIRLostPackets 	0
scalar IntersectionExampleScenario.node[19].nic.mac1609_4 	RXTXLostPackets 	0
scalar IntersectionExampleScenario.node[19].nic.mac1609_4 	TotalLostPackets 	0
scalar IntersectionExampleScenario.node[19].nic.mac1609_4 	DroppedPacketsInMac 	0
scalar IntersectionExampleScenario.node[19].nic.mac1609_4 	TooLittleTime 	0
scalar IntersectionExampleScenario.node[19].nic.mac1609_4 	TimesIntoBackoff 	0
scalar IntersectionExampleScenario.node[19].nic.mac1609_4 	SlotsBackoff 	0
scalar IntersectionExampleScenario.node[19].nic.mac1609_4 	NumInternalContention 	0
scalar IntersectionExampleScenario.node[19].nic.mac1609_4 	totalBusyTime 	0
scalar IntersectionExampleScenario.node[19].veinsmobility 	startTime 	84.25
scalar IntersectionExampleScenario.node[19].veinsmobility 	totalTime 	40.25
scalar IntersectionExampleScenario.node[19].veinsmobility 	stopTime 	124.75
scalar IntersectionExampleScenario.node[19].veinsmobility 	minSpeed 	5.6500000953674
scalar IntersectionExampleScenario.node[19].veinsmobility 	maxSpeed 	15.64999961853
scalar IntersectionExampleScenario.node[19].veinsmobility 	totalDistance 	545.75282694836
scalar IntersectionExampleScenario.node[19].veinsmobility 	totalCO2Emission 	126.65543267184
scalar IntersectionExampleScenario.node[21].appl 	VehicleRemoved 	0
scalar IntersectionExampleScenario.node[21].appl 	ArrivedAtDest 	1
scalar IntersectionExampleScenario.node[21].appl 	IntersectionEnterTime 	98.5
scalar IntersectionExampleScenario.node[21].appl 	IntersectionExitTime 	121.84923405081
scalar IntersectionExampleScenario.node[21].appl 	NumberOfCollisions 	0
scalar IntersectionExampleScenario.node[21].nic.phy80211p 	busyTime 	0
scalar IntersectionExampleScenario.node[21].nic.mac1609_4 	ReceivedUnicastPackets 	0
scalar IntersectionExampleScenario.node[21].nic.mac1609_4 	ReceivedBroadcasts 	0
scalar IntersectionExampleScenario.node[21].nic.mac1609_4 	SentPackets 	0
scalar IntersectionExampleScenario.node[21].nic.mac1609_4 	SNIRLostPackets 	0
scalar IntersectionExampleScenario.node[21].nic.mac1609_4 	RXTXLostPackets 	0
scalar IntersectionExampleScenario.node[21].nic.mac1609_4 	TotalLostPackets 	0
scalar IntersectionExampleScenario.node[21].nic.mac1609_4 	DroppedPacketsInMac 	0
scalar IntersectionExampleScenario.node[21].nic.mac1609_4 	TooLittleTime 	0
scalar IntersectionExampleScenario.node[21].nic.mac1609_4 	TimesIntoBackoff 	0
scalar IntersectionExampleScenario.node[21].nic.mac1609_4 	SlotsBackoff 	0
scalar IntersectionExampleScenario.node[21].nic.mac1609_4 	NumInternalContention 	0
scalar IntersectionExampleScenario.node[21].nic.mac1609_4 	totalBusyTime 	0
scalar IntersectionExampleScenario.node[21].veinsmobility 	startTime 	98.5
scalar IntersectionExampleScenario.node[21].veinsmobility 	totalTime 	39.75
scalar IntersectionExampleScenario.node[21].veinsmobility 	stopTime 	138.5
scalar IntersectionExampleScenario.node[21].veinsmobility 	minSpeed 	5.6500000953674
scalar IntersectionExampleScenario.node[21].veinsmobility 	maxSpeed 	15.02499961853
scalar IntersectionExampleScenario.node[21].veinsmobility 	totalDistance 	551.45475006104
scalar IntersectionExampleScenario.node[21].veinsmobility 	totalCO2Emission 	114.13526844764
scalar IntersectionExampleScenario.node[22].appl 	VehicleRemoved 	0
scalar IntersectionExampleScenario.node[22].appl 	ArrivedAtDest 	1
scalar IntersectionExampleScenario.node[22].appl 	IntersectionEnterTime 	98.75
scalar IntersectionExampleScenario.node[22].appl 	IntersectionExitTime 	123.08100705536
scalar IntersectionExampleScenario.node[22].appl 	NumberOfCollisions 	0
scalar IntersectionExampleScenario.node[22].nic.phy80211p 	busyTime 	0
scalar IntersectionExampleScenario.node[22].nic.mac1609_4 	ReceivedUnicastPackets 	0
scalar IntersectionExampleScenario.node[22].nic.mac1609_4 	ReceivedBroadcasts 	0
scalar IntersectionExampleScenario.node[22].nic.mac1609_4 	SentPackets 	0
scalar IntersectionExampleScenario.node[22].nic.mac1609_4 	SNIRLostPackets 	0
scalar IntersectionExampleScenario.node[22].nic.mac1609_4 	RXTXLostPackets 	0
scalar IntersectionExampleScenario.node[22].nic.mac1609_4 	TotalLostPackets 	0
scalar IntersectionExampleScenario.node[22].nic.mac1609_4 	DroppedPacketsInMac 	0
scalar IntersectionExampleScenario.node[22].nic.mac1609_4 	TooLittleTime 	0
scalar IntersectionExampleScenario.node[22].nic.mac1609_4 	TimesIntoBackoff 	0
scalar IntersectionExampleScenario.node[22].nic.mac1609_4 	SlotsBackoff 	0
scalar IntersectionExampleScenario.node[22].nic.mac1609_4 	NumInternalContention 	0
scalar IntersectionExampleScenario.node[22].nic.mac1609_4 	totalBusyTime 	0
scalar IntersectionExampleScenario.node[22].veinsmobility 	startTime 	98.75
scalar IntersectionExampleScenario.node[22].veinsmobility 	totalTime 	40.5
scalar IntersectionExampleScenario.node[22].veinsmobility 	stopTime 	139.5
scalar IntersectionExampleScenario.node[22].veinsmobility 	minSpeed 	5.6500000953674
scalar IntersectionExampleScenario.node[22].veinsmobility 	maxSpeed 	16.302263259888
scalar IntersectionExampleScenario.node[22].veinsmobility 	totalDistance 	575.40364837646
scalar IntersectionExampleScenario.node[22].veinsmobility 	totalCO2Emission 	125.60714369984
scalar IntersectionExampleScenario.node[20].appl 	VehicleRemoved 	0
scalar IntersectionExampleScenario.node[20].appl 	ArrivedAtDest 	1
scalar IntersectionExampleScenario.node[20].appl 	IntersectionEnterTime 	97.75
scalar IntersectionExampleScenario.node[20].appl 	IntersectionExitTime 	128.34249393965
scalar IntersectionExampleScenario.node[20].appl 	NumberOfCollisions 	0
scalar IntersectionExampleScenario.node[20].nic.phy80211p 	busyTime 	0
scalar IntersectionExampleScenario.node[20].nic.mac1609_4 	ReceivedUnicastPackets 	0
scalar IntersectionExampleScenario.node[20].nic.mac1609_4 	ReceivedBroadcasts 	0
scalar IntersectionExampleScenario.node[20].nic.mac1609_4 	SentPackets 	0
scalar IntersectionExampleScenario.node[20].nic.mac1609_4 	SNIRLostPackets 	0
scalar IntersectionExampleScenario.node[20].nic.mac1609_4 	RXTXLostPackets 	0
scalar IntersectionExampleScenario.node[20].nic.mac1609_4 	TotalLostPackets 	0
scalar IntersectionExampleScenario.node[20].nic.mac1609_4 	DroppedPacketsInMac 	0
scalar IntersectionExampleScenario.node[20].nic.mac1609_4 	TooLittleTime 	0
scalar IntersectionExampleScenario.node[20].nic.mac1609_4 	TimesIntoBackoff 	0
scalar IntersectionExampleScenario.node[20].nic.mac1609_4 	SlotsBackoff 	0
scalar IntersectionExampleScenario.node[20].nic.mac1609_4 	NumInternalContention 	0
scalar IntersectionExampleScenario.node[20].nic.mac1609_4 	totalBusyTime 	0
scalar IntersectionExampleScenario.node[20].veinsmobility 	startTime 	97.75
scalar IntersectionExampleScenario.node[20].veinsmobility 	totalTime 	46.5
scalar IntersectionExampleScenario.node[20].veinsmobility 	stopTime 	144.5
scalar IntersectionExampleScenario.node[20].veinsmobility 	minSpeed 	0
scalar IntersectionExampleScenario.node[20].veinsmobility 	maxSpeed 	15.64999961853
scalar IntersectionExampleScenario.node[20].veinsmobility 	totalDistance 	549.41294206729
scalar IntersectionExampleScenario.node[20].veinsmobility 	totalCO2Emission 	139.14079036771
scalar IntersectionExampleScenario.node[23].appl 	VehicleRemoved 	0
scalar IntersectionExampleScenario.node[23].appl 	ArrivedAtDest 	1
scalar IntersectionExampleScenario.node[23].appl 	IntersectionEnterTime 	103
scalar IntersectionExampleScenario.node[23].appl 	IntersectionExitTime 	129.54176036178
scalar IntersectionExampleScenario.node[23].appl 	NumberOfCollisions 	0
scalar IntersectionExampleScenario.node[23].nic.phy80211p 	busyTime 	0
scalar IntersectionExampleScenario.node[23].nic.mac1609_4 	ReceivedUnicastPackets 	0
scalar IntersectionExampleScenario.node[23].nic.mac1609_4 	ReceivedBroadcasts 	0
scalar IntersectionExampleScenario.node[23].nic.mac1609_4 	SentPackets 	0
scalar IntersectionExampleScenario.node[23].nic.mac1609_4 	SNIRLostPackets 	0
scalar IntersectionExampleScenario.node[23].nic.mac1609_4 	RXTXLostPackets 	0
scalar IntersectionExampleScenario.node[23].nic.mac1609_4 	TotalLostPackets 	0
scalar IntersectionExampleScenario.node[23].nic.mac1609_4 	DroppedPacketsInMac 	0
scalar IntersectionExampleScenario.node[23].nic.mac1609_4 	TooLittleTime 	0
scalar IntersectionExampleScenario.node[23].nic.mac1609_4 	TimesIntoBackoff 	0
scalar IntersectionExampleScenario.node[23].nic.mac1609_4 	SlotsBackoff 	0
scalar IntersectionExampleScenario.node[23].nic.mac1609_4 	NumInternalContention 	0
scalar IntersectionExampleScenario.node[23].nic.mac1609_4 	totalBusyTime 	0
scalar IntersectionExampleScenario.node[23].veinsmobility 	startTime 	103
scalar IntersectionExampleScenario.node[23].veinsmobility 	totalTime 	42.75
scalar IntersectionExampleScenario.node[23].veinsmobility 	stopTime 	146
scalar IntersectionExampleScenario.node[23].veinsmobility 	minSpeed 	4.5612421035767
scalar IntersectionExampleScenario.node[23].veinsmobility 	maxSpeed 	15.5
scalar IntersectionExampleScenario.node[23].veinsmobility 	totalDistance 	552.84580993652
scalar IntersectionExampleScenario.node[23].veinsmobility 	totalCO2Emission 	128.11536709032
scalar IntersectionExampleScenario.node[26].appl 	VehicleRemoved 	0
scalar IntersectionExampleScenario.node[26].appl 	ArrivedAtDest 	1
scalar IntersectionExampleScenario.node[26].appl 	IntersectionEnterTime 	104.75
scalar IntersectionExampleScenario.node[26].appl 	IntersectionExitTime 	130.53762239628
scalar IntersectionExampleScenario.node[26].appl 	NumberOfCollisions 	0
scalar IntersectionExampleScenario.node[26].nic.phy80211p 	busyTime 	0
scalar IntersectionExampleScenario.node[26].nic.mac1609_4 	ReceivedUnicastPackets 	0
scalar IntersectionExampleScenario.node[26].nic.mac1609_4 	ReceivedBroadcasts 	0
scalar IntersectionExampleScenario.node[26].nic.mac1609_4 	SentPackets 	0
scalar IntersectionExampleScenario.node[26].nic.mac1609_4 	SNIRLostPackets 	0
scalar IntersectionExampleScenario.node[26].nic.mac1609_4 	RXTXLostPackets 	0
scalar IntersectionExampleScenario.node[26].nic.mac1609_4 	TotalLostPackets 	0
scalar IntersectionExampleScenario.node[26].nic.mac1609_4 	DroppedPacketsInMac 	0
scalar IntersectionExampleScenario.node[26].nic.mac1609_4 	TooLittleTime 	0
scalar IntersectionExampleScenario.node[26].nic.mac1609_4 	TimesIntoBackoff 	0
scalar IntersectionExampleScenario.node[26].nic.mac1609_4 	SlotsBackoff 	0
scalar IntersectionExampleScenario.node[26].nic.mac1609_4 	NumInternalContention 	0
scalar IntersectionExampleScenario.node[26].nic.mac1609_4 	totalBusyTime 	0
scalar IntersectionExampleScenario.node[26].veinsmobility 	startTime 	104.75
scalar IntersectionExampleScenario.node[26].veinsmobility 	totalTime 	42.25
scalar IntersectionExampleScenario.node[26].veinsmobility 	stopTime 	147.25
scalar IntersectionExampleScenario.node[26].veinsmobility 	minSpeed 	0
scalar IntersectionExampleScenario.node[26].veinsmobility 	maxSpeed 	15.64999961853
scalar IntersectionExampleScenario.node[26].veinsmobility 	totalDistance 	544.78959040002
scalar IntersectionExampleScenario.node[26].veinsmobility 	totalCO2Emission 	136.17325874251
scalar IntersectionExampleScenario.node[24].appl 	VehicleRemoved 	0
scalar IntersectionExampleScenario.node[24].appl 	ArrivedAtDest 	1
scalar IntersectionExampleScenario.node[24].appl 	IntersectionEnterTime 	103.25
scalar IntersectionExampleScenario.node[24].appl 	IntersectionExitTime 	131.83233654365
scalar IntersectionExampleScenario.node[24].appl 	NumberOfCollisions 	0
scalar IntersectionExampleScenario.node[24].nic.phy80211p 	busyTime 	0
scalar IntersectionExampleScenario.node[24].nic.mac1609_4 	ReceivedUnicastPackets 	0
scalar IntersectionExampleScenario.node[24].nic.mac1609_4 	ReceivedBroadcasts 	0
scalar IntersectionExampleScenario.node[24].nic.mac1609_4 	SentPackets 	0
scalar IntersectionExampleScenario.node[24].nic.mac1609_4 	SNIRLostPackets 	0
scalar IntersectionExampleScenario.node[24].nic.mac1609_4 	RXTXLostPackets 	0
scalar IntersectionExampleScenario.node[24].nic.mac1609_4 	TotalLostPackets 	0
scalar IntersectionExampleScenario.node[24].nic.mac1609_4 	DroppedPacketsInMac 	0
scalar IntersectionExampleScenario.node[24].nic.mac1609_4 	TooLittleTime 	0
scalar IntersectionExampleScenario.node[24].nic.mac1609_4 	TimesIntoBackoff 	0
scalar IntersectionExampleScenario.node[24].nic.mac1609_4 	SlotsBackoff 	0
scalar IntersectionExampleScenario.node[24].nic.mac1609_4 	NumInternalContention 	0
scalar IntersectionExampleScenario.node[24].nic.mac1609_4 	totalBusyTime 	0
scalar IntersectionExampleScenario.node[24].veinsmobility 	startTime 	103.25
scalar IntersectionExampleScenario.node[24].veinsmobility 	totalTime 	44.25
scalar IntersectionExampleScenario.node[24].veinsmobility 	stopTime 	147.75
scalar IntersectionExampleScenario.node[24].veinsmobility 	minSpeed 	4.1200299263
scalar IntersectionExampleScenario.node[24].veinsmobility 	maxSpeed 	15.70763874054
scalar IntersectionExampleScenario.node[24].veinsmobility 	totalDistance 	579.15394592285
scalar IntersectionExampleScenario.node[24].veinsmobility 	totalCO2Emission 	140.26352461582
scalar IntersectionExampleScenario.node[27].appl 	VehicleRemoved 	0
scalar IntersectionExampleScenario.node[27].appl 	ArrivedAtDest 	1
scalar IntersectionExampleScenario.node[27].appl 	IntersectionEnterTime 	106.75
scalar IntersectionExampleScenario.node[27].appl 	IntersectionExitTime 	134.12174603235
scalar IntersectionExampleScenario.node[27].appl 	NumberOfCollisions 	0
scalar IntersectionExampleScenario.node[27].nic.phy80211p 	busyTime 	0
scalar IntersectionExampleScenario.node[27].nic.mac1609_4 	ReceivedUnicastPackets 	0
scalar IntersectionExampleScenario.node[27].nic.mac1609_4 	ReceivedBroadcasts 	0
scalar IntersectionExampleScenario.node[27].nic.mac1609_4 	SentPackets 	0
scalar IntersectionExampleScenario.node[27].nic.mac1609_4 	SNIRLostPackets 	0
scalar IntersectionExampleScenario.node[27].nic.mac1609_4 	RXTXLostPackets 	0
scalar IntersectionExampleScenario.node[27].nic.mac1609_4 	TotalLostPackets 	0
scalar IntersectionExampleScenario.node[27].nic.mac1609_4 	DroppedPacketsInMac 	0
scalar IntersectionExampleScenario.node[27].nic.mac1609_4 	TooLittleTime 	0
scalar IntersectionExampleScenario.node[27].nic.mac1609_4 	TimesIntoBackoff 	0
scalar IntersectionExampleScenario.node[27].nic.mac1609_4 	SlotsBackoff 	0
scalar IntersectionExampleScenario.node[27].nic.mac1609_4 	NumInternalContention 	0
scalar IntersectionExampleScenario.node[27].nic.mac1609_4 	totalBusyTime 	0
scalar IntersectionExampleScenario.node[27].veinsmobility 	startTime 	106.75
scalar IntersectionExampleScenario.node[27].veinsmobility 	totalTime 	43.5
scalar IntersectionExampleScenario.node[27].veinsmobility 	stopTime 	150.5
scalar IntersectionExampleScenario.node[27].veinsmobility 	minSpeed 	5.6500000953674
scalar IntersectionExampleScenario.node[27].veinsmobility 	maxSpeed 	15.64999961853
scalar IntersectionExampleScenario.node[27].veinsmobility 	totalDistance 	571.96200754701
scalar IntersectionExampleScenario.node[27].veinsmobility 	totalCO2Emission 	137.50097312703
scalar IntersectionExampleScenario.node[32].appl 	VehicleRemoved 	0
scalar IntersectionExampleScenario.node[32].appl 	ArrivedAtDest 	1
scalar IntersectionExampleScenario.node[32].appl 	IntersectionEnterTime 	112.75
scalar IntersectionExampleScenario.node[32].appl 	IntersectionExitTime 	135.36399681287
scalar IntersectionExampleScenario.node[32].appl 	NumberOfCollisions 	0
scalar IntersectionExampleScenario.node[32].nic.phy80211p 	busyTime 	0
scalar IntersectionExampleScenario.node[32].nic.mac1609_4 	ReceivedUnicastPackets 	0
scalar IntersectionExampleScenario.node[32].nic.mac1609_4 	ReceivedBroadcasts 	0
scalar IntersectionExampleScenario.node[32].nic.mac1609_4 	SentPackets 	0
scalar IntersectionExampleScenario.node[32].nic.mac1609_4 	SNIRLostPackets 	0
scalar IntersectionExampleScenario.node[32].nic.mac1609_4 	RXTXLostPackets 	0
scalar IntersectionExampleScenario.node[32].nic.mac1609_4 	TotalLostPackets 	0
scalar IntersectionExampleScenario.node[32].nic.mac1609_4 	DroppedPacketsInMac 	0
scalar IntersectionExampleScenario.node[32].nic.mac1609_4 	TooLittleTime 	0
scalar IntersectionExampleScenario.node[32].nic.mac1609_4 	TimesIntoBackoff 	0
scalar IntersectionExampleScenario.node[32].nic.mac1609_4 	SlotsBackoff 	0
scalar IntersectionExampleScenario.node[32].nic.mac1609_4 	NumInternalContention 	0
scalar IntersectionExampleScenario.node[32].nic.mac1609_4 	totalBusyTime 	0
scalar IntersectionExampleScenario.node[32].veinsmobility 	startTime 	112.75
scalar IntersectionExampleScenario.node[32].veinsmobility 	totalTime 	38
scalar IntersectionExampleScenario.node[32].veinsmobility 	stopTime 	151
scalar IntersectionExampleScenario.node[32].veinsmobility 	minSpeed 	5.6500000953674
scalar IntersectionExampleScenario.node[32].veinsmobility 	maxSpeed 	16.125
scalar IntersectionExampleScenario.node[32].veinsmobility 	totalDistance 	551.79660797119
scalar IntersectionExampleScenario.node[32].veinsmobility 	totalCO2Emission 	120.06088283497
scalar IntersectionExampleScenario.node[28].appl 	VehicleRemoved 	0
scalar IntersectionExampleScenario.node[28].appl 	ArrivedAtDest 	1
scalar IntersectionExampleScenario.node[28].appl 	IntersectionEnterTime 	108
scalar IntersectionExampleScenario.node[28].appl 	IntersectionExitTime 	136.57837472705
scalar IntersectionExampleScenario.node[28].appl 	NumberOfCollisions 	0
scalar IntersectionExampleScenario.node[28].nic.phy80211p 	busyTime 	0
scalar IntersectionExampleScenario.node[28].nic.mac1609_4 	ReceivedUnicastPackets 	0
scalar IntersectionExampleScenario.node[28].nic.mac1609_4 	ReceivedBroadcasts 	0
scalar IntersectionExampleScenario.node[28].nic.mac1609_4 	SentPackets 	0
scalar IntersectionExampleScenario.node[28].nic.mac1609_4 	SNIRLostPackets 	0
scalar IntersectionExampleScenario.node[28].nic.mac1609_4 	RXTXLostPackets 	0
scalar IntersectionExampleScenario.node[28].nic.mac1609_4 	TotalLostPackets 	0
scalar IntersectionExampleScenario.node[28].nic.mac1609_4 	DroppedPacketsInMac 	0
scalar IntersectionExampleScenario.node[28].nic.mac1609_4 	TooLittleTime 	0
scalar IntersectionExampleScenario.node[28].nic.mac1609_4 	TimesIntoBackoff 	0
scalar IntersectionExampleScenario.node[28].nic.mac1609_4 	SlotsBackoff 	0
scalar IntersectionExampleScenario.node[28].nic.mac1609_4 	NumInternalContention 	0
scalar IntersectionExampleScenario.node[28].nic.mac1609_4 	totalBusyTime 	0
scalar IntersectionExampleScenario.node[28].veinsmobility 	startTime 	108
scalar IntersectionExampleScenario.node[28].veinsmobility 	totalTime 	45.5
scalar IntersectionExampleScenario.node[28].veinsmobility 	stopTime 	153.75
scalar IntersectionExampleScenario.node[28].veinsmobility 	minSpeed 	5.0180554389954
scalar IntersectionExampleScenario.node[28].veinsmobility 	maxSpeed 	14.881708145142
scalar IntersectionExampleScenario.node[28].veinsmobility 	totalDistance 	583.10302764871
scalar IntersectionExampleScenario.node[28].veinsmobility 	totalCO2Emission 	125.62118152415
scalar IntersectionExampleScenario.node[35].appl 	VehicleRemoved 	0
scalar IntersectionExampleScenario.node[35].appl 	ArrivedAtDest 	1
scalar IntersectionExampleScenario.node[35].appl 	IntersectionEnterTime 	115.25
scalar IntersectionExampleScenario.node[35].appl 	IntersectionExitTime 	138.26984681381
scalar IntersectionExampleScenario.node[35].appl 	NumberOfCollisions 	0
scalar IntersectionExampleScenario.node[35].nic.phy80211p 	busyTime 	0
scalar IntersectionExampleScenario.node[35].nic.mac1609_4 	ReceivedUnicastPackets 	0
scalar IntersectionExampleScenario.node[35].nic.mac1609_4 	ReceivedBroadcasts 	0
scalar IntersectionExampleScenario.node[35].nic.mac1609_4 	SentPackets 	0
scalar IntersectionExampleScenario.node[35].nic.mac1609_4 	SNIRLostPackets 	0
scalar IntersectionExampleScenario.node[35].nic.mac1609_4 	RXTXLostPackets 	0
scalar IntersectionExampleScenario.node[35].nic.mac1609_4 	TotalLostPackets 	0
scalar IntersectionExampleScenario.node[35].nic.mac1609_4 	DroppedPacketsInMac 	0
scalar IntersectionExampleScenario.node[35].nic.mac1609_4 	TooLittleTime 	0
scalar IntersectionExampleScenario.node[35].nic.mac1609_4 	TimesIntoBackoff 	0
scalar IntersectionExampleScenario.node[35].nic.mac1609_4 	SlotsBackoff 	0
scalar IntersectionExampleScenario.node[35].nic.mac1609_4 	NumInternalContention 	0
scalar IntersectionExampleScenario.node[35].nic.mac1609_4 	totalBusyTime 	0
scalar IntersectionExampleScenario.node[35].veinsmobility 	startTime 	115.25
scalar IntersectionExampleScenario.node[35].veinsmobility 	totalTime 	39
scalar IntersectionExampleScenario.node[35].veinsmobility 	stopTime 	154.5
scalar IntersectionExampleScenario.node[35].veinsmobility 	minSpeed 	5.6500000953674
scalar IntersectionExampleScenario.node[35].veinsmobility 	maxSpeed 	16.5
scalar IntersectionExampleScenario.node[35].veinsmobility 	totalDistance 	517.50096752904
scalar IntersectionExampleScenario.node[35].veinsmobility 	totalCO2Emission 	125.78779008968
scalar IntersectionExampleScenario.node[31].appl 	VehicleRemoved 	0
scalar IntersectionExampleScenario.node[31].appl 	ArrivedAtDest 	1
scalar IntersectionExampleScenario.node[31].appl 	IntersectionEnterTime 	112
scalar IntersectionExampleScenario.node[31].appl 	IntersectionExitTime 	139.56961725041
scalar IntersectionExampleScenario.node[31].appl 	NumberOfCollisions 	0
scalar IntersectionExampleScenario.node[31].nic.phy80211p 	busyTime 	0
scalar IntersectionExampleScenario.node[31].nic.mac1609_4 	ReceivedUnicastPackets 	0
scalar IntersectionExampleScenario.node[31].nic.mac1609_4 	ReceivedBroadcasts 	0
scalar IntersectionExampleScenario.node[31].nic.mac1609_4 	SentPackets 	0
scalar IntersectionExampleScenario.node[31].nic.mac1609_4 	SNIRLostPackets 	0
scalar IntersectionExampleScenario.node[31].nic.mac1609_4 	RXTXLostPackets 	0
scalar IntersectionExampleScenario.node[31].nic.mac1609_4 	TotalLostPackets 	0
scalar IntersectionExampleScenario.node[31].nic.mac1609_4 	DroppedPacketsInMac 	0
scalar IntersectionExampleScenario.node[31].nic.mac1609_4 	TooLittleTime 	0
scalar IntersectionExampleScenario.node[31].nic.mac1609_4 	TimesIntoBackoff 	0
scalar IntersectionExampleScenario.node[31].nic.mac1609_4 	SlotsBackoff 	0
scalar IntersectionExampleScenario.node[31].nic.mac1609_4 	NumInternalContention 	0
scalar IntersectionExampleScenario.node[31].nic.mac1609_4 	totalBusyTime 	0
scalar IntersectionExampleScenario.node[31].veinsmobility 	startTime 	112
scalar IntersectionExampleScenario.node[31].veinsmobility 	totalTime 	43.25
scalar IntersectionExampleScenario.node[31].veinsmobility 	stopTime 	155.5
scalar IntersectionExampleScenario.node[31].veinsmobility 	minSpeed 	5.6500000953674
scalar IntersectionExampleScenario.node[31].veinsmobility 	maxSpeed 	16.679840087891
scalar IntersectionExampleScenario.node[31].veinsmobility 	totalDistance 	569.38764053917
scalar IntersectionExampleScenario.node[31].veinsmobility 	totalCO2Emission 	143.76529114706
scalar IntersectionExampleScenario.node[34].appl 	VehicleRemoved 	0
scalar IntersectionExampleScenario.node[34].appl 	ArrivedAtDest 	1
scalar IntersectionExampleScenario.node[34].appl 	IntersectionEnterTime 	114.5
scalar IntersectionExampleScenario.node[34].appl 	IntersectionExitTime 	141.27326086929
scalar IntersectionExampleScenario.node[34].appl 	NumberOfCollisions 	0
scalar IntersectionExampleScenario.node[34].nic.phy80211p 	busyTime 	0
scalar IntersectionExampleScenario.node[34].nic.mac1609_4 	ReceivedUnicastPackets 	0
scalar IntersectionExampleScenario.node[34].nic.mac1609_4 	ReceivedBroadcasts 	0
scalar IntersectionExampleScenario.node[34].nic.mac1609_4 	SentPackets 	0
scalar IntersectionExampleScenario.node[34].nic.mac1609_4 	SNIRLostPackets 	0
scalar IntersectionExampleScenario.node[34].nic.mac1609_4 	RXTXLostPackets 	0
scalar IntersectionExampleScenario.node[34].nic.mac1609_4 	TotalLostPackets 	0
scalar IntersectionExampleScenario.node[34].nic.mac1609_4 	DroppedPacketsInMac 	0
scalar IntersectionExampleScenario.node[34].nic.mac1609_4 	TooLittleTime 	0
scalar IntersectionExampleScenario.node[34].nic.mac1609_4 	TimesIntoBackoff 	0
scalar IntersectionExampleScenario.node[34].nic.mac1609_4 	SlotsBackoff 	0
scalar IntersectionExampleScenario.node[34].nic.mac1609_4 	NumInternalContention 	0
scalar IntersectionExampleScenario.node[34].nic.mac1609_4 	totalBusyTime 	0
scalar IntersectionExampleScenario.node[34].veinsmobility 	startTime 	114.5
scalar IntersectionExampleScenario.node[34].veinsmobility 	totalTime 	42.5
scalar IntersectionExampleScenario.node[34].veinsmobility 	stopTime 	157.25
scalar IntersectionExampleScenario.node[34].veinsmobility 	minSpeed 	5.6500000953674
scalar IntersectionExampleScenario.node[34].veinsmobility 	maxSpeed 	16.5
scalar IntersectionExampleScenario.node[34].veinsmobility 	totalDistance 	571.7270227585
scalar IntersectionExampleScenario.node[34].veinsmobility 	totalCO2Emission 	138.20343223397
scalar IntersectionExampleScenario.node[25].appl 	VehicleRemoved 	0
scalar IntersectionExampleScenario.node[25].appl 	ArrivedAtDest 	1
scalar IntersectionExampleScenario.node[25].appl 	IntersectionEnterTime 	103.75
scalar IntersectionExampleScenario.node[25].appl 	IntersectionExitTime 	143.85561731551
scalar IntersectionExampleScenario.node[25].appl 	NumberOfCollisions 	0
scalar IntersectionExampleScenario.node[25].nic.phy80211p 	busyTime 	0
scalar IntersectionExampleScenario.node[25].nic.mac1609_4 	ReceivedUnicastPackets 	0
scalar IntersectionExampleScenario.node[25].nic.mac1609_4 	ReceivedBroadcasts 	0
scalar IntersectionExampleScenario.node[25].nic.mac1609_4 	SentPackets 	0
scalar IntersectionExampleScenario.node[25].nic.mac1609_4 	SNIRLostPackets 	0
scalar IntersectionExampleScenario.node[25].nic.mac1609_4 	RXTXLostPackets 	0
scalar IntersectionExampleScenario.node[25].nic.mac1609_4 	TotalLostPackets 	0
scalar IntersectionExampleScenario.node[25].nic.mac1609_4 	DroppedPacketsInMac 	0
scalar IntersectionExampleScenario.node[25].nic.mac1609_4 	TooLittleTime 	0
scalar IntersectionExampleScenario.node[25].nic.mac1609_4 	TimesIntoBackoff 	0
scalar IntersectionExampleScenario.node[25].nic.mac1609_4 	SlotsBackoff 	0
scalar IntersectionExampleScenario.node[25].nic.mac1609_4 	NumInternalContention 	0
scalar IntersectionExampleScenario.node[25].nic.mac1609_4 	totalBusyTime 	0
scalar IntersectionExampleScenario.node[25].veinsmobility 	startTime 	103.75
scalar IntersectionExampleScenario.node[25].veinsmobility 	totalTime 	56.5
scalar IntersectionExampleScenario.node[25].veinsmobility 	stopTime 	160.5
scalar IntersectionExampleScenario.node[25].veinsmobility 	minSpeed 	0
scalar IntersectionExampleScenario.node[25].veinsmobility 	maxSpeed 	15.375
scalar IntersectionExampleScenario.node[25].veinsmobility 	totalDistance 	551.41307955217
scalar IntersectionExampleScenario.node[25].veinsmobility 	totalCO2Emission 	147.71218249581
scalar IntersectionExampleScenario.node[33].appl 	VehicleRemoved 	0
scalar IntersectionExampleScenario.node[33].appl 	ArrivedAtDest 	1
scalar IntersectionExampleScenario.node[33].appl 	IntersectionEnterTime 	114.25
scalar IntersectionExampleScenario.node[33].appl 	IntersectionExitTime 	145.59292056764
scalar IntersectionExampleScenario.node[33].appl 	NumberOfCollisions 	0
scalar IntersectionExampleScenario.node[33].nic.phy80211p 	busyTime 	0
scalar IntersectionExampleScenario.node[33].nic.mac1609_4 	ReceivedUnicastPackets 	0
scalar IntersectionExampleScenario.node[33].nic.mac1609_4 	ReceivedBroadcasts 	0
scalar IntersectionExampleScenario.node[33].nic.mac1609_4 	SentPackets 	0
scalar IntersectionExampleScenario.node[33].nic.mac1609_4 	SNIRLostPackets 	0
scalar IntersectionExampleScenario.node[33].nic.mac1609_4 	RXTXLostPackets 	0
scalar IntersectionExampleScenario.node[33].nic.mac1609_4 	TotalLostPackets 	0
scalar IntersectionExampleScenario.node[33].nic.mac1609_4 	DroppedPacketsInMac 	0
scalar IntersectionExampleScenario.node[33].nic.mac1609_4 	TooLittleTime 	0
scalar IntersectionExampleScenario.node[33].nic.mac1609_4 	TimesIntoBackoff 	0
scalar IntersectionExampleScenario.node[33].nic.mac1609_4 	SlotsBackoff 	0
scalar IntersectionExampleScenario.node[33].nic.mac1609_4 	NumInternalContention 	0
scalar IntersectionExampleScenario.node[33].nic.mac1609_4 	totalBusyTime 	0
scalar IntersectionExampleScenario.node[33].veinsmobility 	startTime 	114.25
scalar IntersectionExampleScenario.node[33].veinsmobility 	totalTime 	46.25
scalar IntersectionExampleScenario.node[33].veinsmobility 	stopTime 	160.75
scalar IntersectionExampleScenario.node[33].veinsmobility 	minSpeed 	1.7456256151199
scalar IntersectionExampleScenario.node[33].veinsmobility 	maxSpeed 	16.89999961853
scalar IntersectionExampleScenario.node[33].veinsmobility 	totalDistance 	553.18902587891
scalar IntersectionExampleScenario.node[33].veinsmobility 	totalCO2Emission 	144.0128774045
scalar IntersectionExampleScenario.node[29].appl 	VehicleRemoved 	0
scalar IntersectionExampleScenario.node[29].appl 	ArrivedAtDest 	1
scalar IntersectionExampleScenario.node[29].appl 	IntersectionEnterTime 	108.5
scalar IntersectionExampleScenario.node[29].appl 	IntersectionExitTime 	146.55193795872
scalar IntersectionExampleScenario.node[29].appl 	NumberOfCollisions 	0
scalar IntersectionExampleScenario.node[29].nic.phy80211p 	busyTime 	0
scalar IntersectionExampleScenario.node[29].nic.mac1609_4 	ReceivedUnicastPackets 	0
scalar IntersectionExampleScenario.node[29].nic.mac1609_4 	ReceivedBroadcasts 	0
scalar IntersectionExampleScenario.node[29].nic.mac1609_4 	SentPackets 	0
scalar IntersectionExampleScenario.node[29].nic.mac1609_4 	SNIRLostPackets 	0
scalar IntersectionExampleScenario.node[29].nic.mac1609_4 	RXTXLostPackets 	0
scalar IntersectionExampleScenario.node[29].nic.mac1609_4 	TotalLostPackets 	0
scalar IntersectionExampleScenario.node[29].nic.mac1609_4 	DroppedPacketsInMac 	0
scalar IntersectionExampleScenario.node[29].nic.mac1609_4 	TooLittleTime 	0
scalar IntersectionExampleScenario.node[29].nic.mac1609_4 	TimesIntoBackoff 	0
scalar IntersectionExampleScenario.node[29].nic.mac1609_4 	SlotsBackoff 	0
scalar IntersectionExampleScenario.node[29].nic.mac1609_4 	NumInternalContention 	0
scalar IntersectionExampleScenario.node[29].nic.mac1609_4 	totalBusyTime 	0
scalar IntersectionExampleScenario.node[29].veinsmobility 	startTime 	108.5
scalar IntersectionExampleScenario.node[29].veinsmobility 	totalTime 	54.5
scalar IntersectionExampleScenario.node[29].veinsmobility 	stopTime 	163.25
scalar IntersectionExampleScenario.node[29].veinsmobility 	minSpeed 	0
scalar IntersectionExampleScenario.node[29].veinsmobility 	maxSpeed 	15.64999961853
scalar IntersectionExampleScenario.node[29].veinsmobility 	totalDistance 	544.20642999963
scalar IntersectionExampleScenario.node[29].veinsmobility 	totalCO2Emission 	147.13630404315
scalar IntersectionExampleScenario.node[30].appl 	VehicleRemoved 	0
scalar IntersectionExampleScenario.node[30].appl 	ArrivedAtDest 	1
scalar IntersectionExampleScenario.node[30].appl 	IntersectionEnterTime 	108.75
scalar IntersectionExampleScenario.node[30].appl 	IntersectionExitTime 	148.02172185111
scalar IntersectionExampleScenario.node[30].appl 	NumberOfCollisions 	0
scalar IntersectionExampleScenario.node[30].nic.phy80211p 	busyTime 	0
scalar IntersectionExampleScenario.node[30].nic.mac1609_4 	ReceivedUnicastPackets 	0
scalar IntersectionExampleScenario.node[30].nic.mac1609_4 	ReceivedBroadcasts 	0
scalar IntersectionExampleScenario.node[30].nic.mac1609_4 	SentPackets 	0
scalar IntersectionExampleScenario.node[30].nic.mac1609_4 	SNIRLostPackets 	0
scalar IntersectionExampleScenario.node[30].nic.mac1609_4 	RXTXLostPackets 	0
scalar IntersectionExampleScenario.node[30].nic.mac1609_4 	TotalLostPackets 	0
scalar IntersectionExampleScenario.node[30].nic.mac1609_4 	DroppedPacketsInMac 	0
scalar IntersectionExampleScenario.node[30].nic.mac1609_4 	TooLittleTime 	0
scalar IntersectionExampleScenario.node[30].nic.mac1609_4 	TimesIntoBackoff 	0
scalar IntersectionExampleScenario.node[30].nic.mac1609_4 	SlotsBackoff 	0
scalar IntersectionExampleScenario.node[30].nic.mac1609_4 	NumInternalContention 	0
scalar IntersectionExampleScenario.node[30].nic.mac1609_4 	totalBusyTime 	0
scalar IntersectionExampleScenario.node[30].veinsmobility 	startTime 	108.75
scalar IntersectionExampleScenario.node[30].veinsmobility 	totalTime 	56.25
scalar IntersectionExampleScenario.node[30].veinsmobility 	stopTime 	165.25
scalar IntersectionExampleScenario.node[30].veinsmobility 	minSpeed 	0
scalar IntersectionExampleScenario.node[30].veinsmobility 	maxSpeed 	15.028461456299
scalar IntersectionExampleScenario.node[30].veinsmobility 	totalDistance 	576.24975220389
scalar IntersectionExampleScenario.node[30].veinsmobility 	totalCO2Emission 	145.8878783018
scalar IntersectionExampleScenario.node[37].appl 	VehicleRemoved 	0
scalar IntersectionExampleScenario.node[37].appl 	ArrivedAtDest 	1
scalar IntersectionExampleScenario.node[37].appl 	IntersectionEnterTime 	121.5
scalar IntersectionExampleScenario.node[37].appl 	IntersectionExitTime 	150.54815875343
scalar IntersectionExampleScenario.node[37].appl 	NumberOfCollisions 	0
scalar IntersectionExampleScenario.node[37].nic.phy80211p 	busyTime 	0
scalar IntersectionExampleScenario.node[37].nic.mac1609_4 	ReceivedUnicastPackets 	0
scalar IntersectionExampleScenario.node[37].nic.mac1609_4 	ReceivedBroadcasts 	0
scalar IntersectionExampleScenario.node[37].nic.mac1609_4 	SentPackets 	0
scalar IntersectionExampleScenario.node[37].nic.mac1609_4 	SNIRLostPackets 	0
scalar IntersectionExampleScenario.node[37].nic.mac1609_4 	RXTXLostPackets 	0
scalar IntersectionExampleScenario.node[37].nic.mac1609_4 	TotalLostPackets 	0
scalar IntersectionExampleScenario.node[37].nic.mac1609_4 	DroppedPacketsInMac 	0
scalar IntersectionExampleScenario.node[37].nic.mac1609_4 	TooLittleTime 	0
scalar IntersectionExampleScenario.node[37].nic.mac1609_4 	TimesIntoBackoff 	0
scalar IntersectionExampleScenario.node[37].nic.mac1609_4 	SlotsBackoff 	0
scalar IntersectionExampleScenario.node[37].nic.mac1609_4 	NumInternalContention 	0
scalar IntersectionExampleScenario.node[37].nic.mac1609_4 	totalBusyTime 	0
scalar IntersectionExampleScenario.node[37].veinsmobility 	startTime 	121.5
scalar IntersectionExampleScenario.node[37].veinsmobility 	totalTime 	45
scalar IntersectionExampleScenario.node[37].veinsmobility 	stopTime 	166.75
scalar IntersectionExampleScenario.node[37].veinsmobility 	minSpeed 	4.0957207679749
scalar IntersectionExampleScenario.node[37].veinsmobility 	maxSpeed 	15.64999961853
scalar IntersectionExampleScenario.node[37].veinsmobility 	totalDistance 	549.75055180765
scalar IntersectionExampleScenario.node[37].veinsmobility 	totalCO2Emission 	135.57570214934
scalar IntersectionExampleScenario.node[38].appl 	VehicleRemoved 	0
scalar IntersectionExampleScenario.node[38].appl 	ArrivedAtDest 	1
scalar IntersectionExampleScenario.node[38].appl 	IntersectionEnterTime 	125.75
scalar IntersectionExampleScenario.node[38].appl 	IntersectionExitTime 	152.84045059665
scalar IntersectionExampleScenario.node[38].appl 	NumberOfCollisions 	0
scalar IntersectionExampleScenario.node[38].nic.phy80211p 	busyTime 	0
scalar IntersectionExampleScenario.node[38].nic.mac1609_4 	ReceivedUnicastPackets 	0
scalar IntersectionExampleScenario.node[38].nic.mac1609_4 	ReceivedBroadcasts 	0
scalar IntersectionExampleScenario.node[38].nic.mac1609_4 	SentPackets 	0
scalar IntersectionExampleScenario.node[38].nic.mac1609_4 	SNIRLostPackets 	0
scalar IntersectionExampleScenario.node[38].nic.mac1609_4 	RXTXLostPackets 	0
scalar IntersectionExampleScenario.node[38].nic.mac1609_4 	TotalLostPackets 	0
scalar IntersectionExampleScenario.node[38].nic.mac1609_4 	DroppedPacketsInMac 	0
scalar IntersectionExampleScenario.node[38].nic.mac1609_4 	TooLittleTime 	0
scalar IntersectionExampleScenario.node[38].nic.mac1609_4 	TimesIntoBackoff 	0
scalar IntersectionExampleScenario.node[38].nic.mac1609_4 	SlotsBackoff 	0
scalar IntersectionExampleScenario.node[38].nic.mac1609_4 	NumInternalContention 	0
scalar IntersectionExampleScenario.node[38].nic.mac1609_4 	totalBusyTime 	0
scalar IntersectionExampleScenario.node[38].veinsmobility 	startTime 	125.75
scalar IntersectionExampleScenario.node[38].veinsmobility 	totalTime 	43.25
scalar IntersectionExampleScenario.node[38].veinsmobility 	stopTime 	169.25
scalar IntersectionExampleScenario.node[38].veinsmobility 	minSpeed 	5.6500000953674
scalar IntersectionExampleScenario.node[38].veinsmobility 	maxSpeed 	15.64999961853
scalar IntersectionExampleScenario.node[38].veinsmobility 	totalDistance 	553.82619241942
scalar IntersectionExampleScenario.node[38].veinsmobility 	totalCO2Emission 	129.86677713722
scalar IntersectionExampleScenario.node[41].appl 	VehicleRemoved 	0
scalar IntersectionExampleScenario.node[41].appl 	ArrivedAtDest 	1
scalar IntersectionExampleScenario.node[41].appl 	IntersectionEnterTime 	133.5
scalar IntersectionExampleScenario.node[41].appl 	IntersectionExitTime 	155.37246166295
scalar IntersectionExampleScenario.node[41].appl 	NumberOfCollisions 	0
scalar IntersectionExampleScenario.node[41].nic.phy80211p 	busyTime 	0
scalar IntersectionExampleScenario.node[41].nic.mac1609_4 	ReceivedUnicastPackets 	0
scalar IntersectionExampleScenario.node[41].nic.mac1609_4 	ReceivedBroadcasts 	0
scalar IntersectionExampleScenario.node[41].nic.mac1609_4 	SentPackets 	0
scalar IntersectionExampleScenario.node[41].nic.mac1609_4 	SNIRLostPackets 	0
scalar IntersectionExampleScenario.node[41].nic.mac1609_4 	RXTXLostPackets 	0
scalar IntersectionExampleScenario.node[41].nic.mac1609_4 	TotalLostPackets 	0
scalar IntersectionExampleScenario.node[41].nic.mac1609_4 	DroppedPacketsInMac 	0
scalar IntersectionExampleScenario.node[41].nic.mac1609_4 	TooLittleTime 	0
scalar IntersectionExampleScenario.node[41].nic.mac1609_4 	TimesIntoBackoff 	0
scalar IntersectionExampleScenario.node[41].nic.mac1609_4 	SlotsBackoff 	0
scalar IntersectionExampleScenario.node[41].nic.mac1609_4 	NumInternalContention 	0
scalar IntersectionExampleScenario.node[41].nic.mac1609_4 	totalBusyTime 	0
scalar IntersectionExampleScenario.node[41].veinsmobility 	startTime 	133.5
scalar IntersectionExampleScenario.node[41].veinsmobility 	totalTime 	38
scalar IntersectionExampleScenario.node[41].veinsmobility 	stopTime 	171.75
scalar IntersectionExampleScenario.node[41].veinsmobility 	minSpeed 	5.6500000953674
scalar IntersectionExampleScenario.node[41].veinsmobility 	maxSpeed 	15.5
scalar IntersectionExampleScenario.node[41].veinsmobility 	totalDistance 	521.83381652832
scalar IntersectionExampleScenario.node[41].veinsmobility 	totalCO2Emission 	112.44307858336
scalar IntersectionExampleScenario.node[39].appl 	VehicleRemoved 	0
scalar IntersectionExampleScenario.node[39].appl 	ArrivedAtDest 	1
scalar IntersectionExampleScenario.node[39].appl 	IntersectionEnterTime 	131.5
scalar IntersectionExampleScenario.node[39].appl 	IntersectionExitTime 	157.59309335725
scalar IntersectionExampleScenario.node[39].appl 	NumberOfCollisions 	0
scalar IntersectionExampleScenario.node[39].nic.phy80211p 	busyTime 	0
scalar IntersectionExampleScenario.node[39].nic.mac1609_4 	ReceivedUnicastPackets 	0
scalar IntersectionExampleScenario.node[39].nic.mac1609_4 	ReceivedBroadcasts 	0
scalar IntersectionExampleScenario.node[39].nic.mac1609_4 	SentPackets 	0
scalar IntersectionExampleScenario.node[39].nic.mac1609_4 	SNIRLostPackets 	0
scalar IntersectionExampleScenario.node[39].nic.mac1609_4 	RXTXLostPackets 	0
scalar IntersectionExampleScenario.node[39].nic.mac1609_4 	TotalLostPackets 	0
scalar IntersectionExampleScenario.node[39].nic.mac1609_4 	DroppedPacketsInMac 	0
scalar IntersectionExampleScenario.node[39].nic.mac1609_4 	TooLittleTime 	0
[...]
scalar IntersectionExampleScenario.node[576].veinsmobility 	totalCO2Emission 	127.77621163564
scalar IntersectionExampleScenario.node[577].appl 	VehicleRemoved 	0
scalar IntersectionExampleScenario.node[577].appl 	ArrivedAtDest 	0
scalar IntersectionExampleScenario.node[577].appl 	IntersectionEnterTime 	1765.5
scalar IntersectionExampleScenario.node[577].appl 	IntersectionExitTime 	1791.5294095547
scalar IntersectionExampleScenario.node[577].appl 	NumberOfCollisions 	0
scalar IntersectionExampleScenario.node[577].nic.phy80211p 	busyTime 	0
scalar IntersectionExampleScenario.node[577].nic.mac1609_4 	ReceivedUnicastPackets 	0
scalar IntersectionExampleScenario.node[577].nic.mac1609_4 	ReceivedBroadcasts 	0
scalar IntersectionExampleScenario.node[577].nic.mac1609_4 	SentPackets 	0
scalar IntersectionExampleScenario.node[577].nic.mac1609_4 	SNIRLostPackets 	0
scalar IntersectionExampleScenario.node[577].nic.mac1609_4 	RXTXLostPackets 	0
scalar IntersectionExampleScenario.node[577].nic.mac1609_4 	TotalLostPackets 	0
scalar IntersectionExampleScenario.node[577].nic.mac1609_4 	DroppedPacketsInMac 	0
scalar IntersectionExampleScenario.node[577].nic.mac1609_4 	TooLittleTime 	0
scalar IntersectionExampleScenario.node[577].nic.mac1609_4 	TimesIntoBackoff 	0
scalar IntersectionExampleScenario.node[577].nic.mac1609_4 	SlotsBackoff 	0
scalar IntersectionExampleScenario.node[577].nic.mac1609_4 	NumInternalContention 	0
scalar IntersectionExampleScenario.node[577].nic.mac1609_4 	totalBusyTime 	0
scalar IntersectionExampleScenario.node[577].veinsmobility 	startTime 	1765.5
scalar IntersectionExampleScenario.node[577].veinsmobility 	totalTime 	34.5
scalar IntersectionExampleScenario.node[577].veinsmobility 	stopTime 	1800
scalar IntersectionExampleScenario.node[577].veinsmobility 	minSpeed 	5.6500000953674
scalar IntersectionExampleScenario.node[577].veinsmobility 	maxSpeed 	15.25
scalar IntersectionExampleScenario.node[577].veinsmobility 	totalDistance 	416.81092776302
scalar IntersectionExampleScenario.node[577].veinsmobility 	totalCO2Emission 	112.98842910647
scalar IntersectionExampleScenario.node[578].appl 	VehicleRemoved 	0
scalar IntersectionExampleScenario.node[578].appl 	ArrivedAtDest 	0
scalar IntersectionExampleScenario.node[578].appl 	IntersectionEnterTime 	1770.25
scalar IntersectionExampleScenario.node[578].appl 	IntersectionExitTime 	-1
scalar IntersectionExampleScenario.node[578].appl 	NumberOfCollisions 	0
scalar IntersectionExampleScenario.node[578].nic.phy80211p 	busyTime 	0
scalar IntersectionExampleScenario.node[578].nic.mac1609_4 	ReceivedUnicastPackets 	0
scalar IntersectionExampleScenario.node[578].nic.mac1609_4 	ReceivedBroadcasts 	0
scalar IntersectionExampleScenario.node[578].nic.mac1609_4 	SentPackets 	0
scalar IntersectionExampleScenario.node[578].nic.mac1609_4 	SNIRLostPackets 	0
scalar IntersectionExampleScenario.node[578].nic.mac1609_4 	RXTXLostPackets 	0
scalar IntersectionExampleScenario.node[578].nic.mac1609_4 	TotalLostPackets 	0
scalar IntersectionExampleScenario.node[578].nic.mac1609_4 	DroppedPacketsInMac 	0
scalar IntersectionExampleScenario.node[578].nic.mac1609_4 	TooLittleTime 	0
scalar IntersectionExampleScenario.node[578].nic.mac1609_4 	TimesIntoBackoff 	0
scalar IntersectionExampleScenario.node[578].nic.mac1609_4 	SlotsBackoff 	0
scalar IntersectionExampleScenario.node[578].nic.mac1609_4 	NumInternalContention 	0
scalar IntersectionExampleScenario.node[578].nic.mac1609_4 	totalBusyTime 	0
scalar IntersectionExampleScenario.node[578].veinsmobility 	startTime 	1770.25
scalar IntersectionExampleScenario.node[578].veinsmobility 	totalTime 	29.75
scalar IntersectionExampleScenario.node[578].veinsmobility 	stopTime 	1800
scalar IntersectionExampleScenario.node[578].veinsmobility 	minSpeed 	0
scalar IntersectionExampleScenario.node[578].veinsmobility 	maxSpeed 	15.64999961853
scalar IntersectionExampleScenario.node[578].veinsmobility 	totalDistance 	293.62501294746
scalar IntersectionExampleScenario.node[578].veinsmobility 	totalCO2Emission 	77.34462794369
scalar IntersectionExampleScenario.node[579].appl 	VehicleRemoved 	0
scalar IntersectionExampleScenario.node[579].appl 	ArrivedAtDest 	0
scalar IntersectionExampleScenario.node[579].appl 	IntersectionEnterTime 	1770.5
scalar IntersectionExampleScenario.node[579].appl 	IntersectionExitTime 	1793.767666606
scalar IntersectionExampleScenario.node[579].appl 	NumberOfCollisions 	0
scalar IntersectionExampleScenario.node[579].nic.phy80211p 	busyTime 	0
scalar IntersectionExampleScenario.node[579].nic.mac1609_4 	ReceivedUnicastPackets 	0
scalar IntersectionExampleScenario.node[579].nic.mac1609_4 	ReceivedBroadcasts 	0
scalar IntersectionExampleScenario.node[579].nic.mac1609_4 	SentPackets 	0
scalar IntersectionExampleScenario.node[579].nic.mac1609_4 	SNIRLostPackets 	0
scalar IntersectionExampleScenario.node[579].nic.mac1609_4 	RXTXLostPackets 	0
scalar IntersectionExampleScenario.node[579].nic.mac1609_4 	TotalLostPackets 	0
scalar IntersectionExampleScenario.node[579].nic.mac1609_4 	DroppedPacketsInMac 	0
scalar IntersectionExampleScenario.node[579].nic.mac1609_4 	TooLittleTime 	0
scalar IntersectionExampleScenario.node[579].nic.mac1609_4 	TimesIntoBackoff 	0
scalar IntersectionExampleScenario.node[579].nic.mac1609_4 	SlotsBackoff 	0
scalar IntersectionExampleScenario.node[579].nic.mac1609_4 	NumInternalContention 	0
scalar IntersectionExampleScenario.node[579].nic.mac1609_4 	totalBusyTime 	0
scalar IntersectionExampleScenario.node[579].veinsmobility 	startTime 	1770.5
scalar IntersectionExampleScenario.node[579].veinsmobility 	totalTime 	29.5
scalar IntersectionExampleScenario.node[579].veinsmobility 	stopTime 	1800
scalar IntersectionExampleScenario.node[579].veinsmobility 	minSpeed 	5.6500000953674
scalar IntersectionExampleScenario.node[579].veinsmobility 	maxSpeed 	15.64999961853
scalar IntersectionExampleScenario.node[579].veinsmobility 	totalDistance 	393.67339023421
scalar IntersectionExampleScenario.node[579].veinsmobility 	totalCO2Emission 	100.10455435316
scalar IntersectionExampleScenario.node[580].appl 	VehicleRemoved 	0
scalar IntersectionExampleScenario.node[580].appl 	ArrivedAtDest 	0
scalar IntersectionExampleScenario.node[580].appl 	IntersectionEnterTime 	1780.5
scalar IntersectionExampleScenario.node[580].appl 	IntersectionExitTime 	-1
scalar IntersectionExampleScenario.node[580].appl 	NumberOfCollisions 	0
scalar IntersectionExampleScenario.node[580].nic.phy80211p 	busyTime 	0
scalar IntersectionExampleScenario.node[580].nic.mac1609_4 	ReceivedUnicastPackets 	0
scalar IntersectionExampleScenario.node[580].nic.mac1609_4 	ReceivedBroadcasts 	0
scalar IntersectionExampleScenario.node[580].nic.mac1609_4 	SentPackets 	0
scalar IntersectionExampleScenario.node[580].nic.mac1609_4 	SNIRLostPackets 	0
scalar IntersectionExampleScenario.node[580].nic.mac1609_4 	RXTXLostPackets 	0
scalar IntersectionExampleScenario.node[580].nic.mac1609_4 	TotalLostPackets 	0
scalar IntersectionExampleScenario.node[580].nic.mac1609_4 	DroppedPacketsInMac 	0
scalar IntersectionExampleScenario.node[580].nic.mac1609_4 	TooLittleTime 	0
scalar IntersectionExampleScenario.node[580].nic.mac1609_4 	TimesIntoBackoff 	0
scalar IntersectionExampleScenario.node[580].nic.mac1609_4 	SlotsBackoff 	0
scalar IntersectionExampleScenario.node[580].nic.mac1609_4 	NumInternalContention 	0
scalar IntersectionExampleScenario.node[580].nic.mac1609_4 	totalBusyTime 	0
scalar IntersectionExampleScenario.node[580].veinsmobility 	startTime 	1780.5
scalar IntersectionExampleScenario.node[580].veinsmobility 	totalTime 	19.5
scalar IntersectionExampleScenario.node[580].veinsmobility 	stopTime 	1800
scalar IntersectionExampleScenario.node[580].veinsmobility 	minSpeed 	5.6500000953674
scalar IntersectionExampleScenario.node[580].veinsmobility 	maxSpeed 	15.02499961853
scalar IntersectionExampleScenario.node[580].veinsmobility 	totalDistance 	271.35913848877
scalar IntersectionExampleScenario.node[580].veinsmobility 	totalCO2Emission 	62.909780475719
scalar IntersectionExampleScenario.node[581].appl 	VehicleRemoved 	0
scalar IntersectionExampleScenario.node[581].appl 	ArrivedAtDest 	0
scalar IntersectionExampleScenario.node[581].appl 	IntersectionEnterTime 	1784.5
scalar IntersectionExampleScenario.node[581].appl 	IntersectionExitTime 	-1
scalar IntersectionExampleScenario.node[581].appl 	NumberOfCollisions 	0
scalar IntersectionExampleScenario.node[581].nic.phy80211p 	busyTime 	0
scalar IntersectionExampleScenario.node[581].nic.mac1609_4 	ReceivedUnicastPackets 	0
scalar IntersectionExampleScenario.node[581].nic.mac1609_4 	ReceivedBroadcasts 	0
scalar IntersectionExampleScenario.node[581].nic.mac1609_4 	SentPackets 	0
scalar IntersectionExampleScenario.node[581].nic.mac1609_4 	SNIRLostPackets 	0
scalar IntersectionExampleScenario.node[581].nic.mac1609_4 	RXTXLostPackets 	0
scalar IntersectionExampleScenario.node[581].nic.mac1609_4 	TotalLostPackets 	0
scalar IntersectionExampleScenario.node[581].nic.mac1609_4 	DroppedPacketsInMac 	0
scalar IntersectionExampleScenario.node[581].nic.mac1609_4 	TooLittleTime 	0
scalar IntersectionExampleScenario.node[581].nic.mac1609_4 	TimesIntoBackoff 	0
scalar IntersectionExampleScenario.node[581].nic.mac1609_4 	SlotsBackoff 	0
scalar IntersectionExampleScenario.node[581].nic.mac1609_4 	NumInternalContention 	0
scalar IntersectionExampleScenario.node[581].nic.mac1609_4 	totalBusyTime 	0
scalar IntersectionExampleScenario.node[581].veinsmobility 	startTime 	1784.5
scalar IntersectionExampleScenario.node[581].veinsmobility 	totalTime 	15.5
scalar IntersectionExampleScenario.node[581].veinsmobility 	stopTime 	1800
scalar IntersectionExampleScenario.node[581].veinsmobility 	minSpeed 	5.6500000953674
scalar IntersectionExampleScenario.node[581].veinsmobility 	maxSpeed 	15.64999961853
scalar IntersectionExampleScenario.node[581].veinsmobility 	totalDistance 	215.66480255127
scalar IntersectionExampleScenario.node[581].veinsmobility 	totalCO2Emission 	56.568418928278
scalar IntersectionExampleScenario.node[582].appl 	VehicleRemoved 	0
scalar IntersectionExampleScenario.node[582].appl 	ArrivedAtDest 	0
scalar IntersectionExampleScenario.node[582].appl 	IntersectionEnterTime 	1784.75
scalar IntersectionExampleScenario.node[582].appl 	IntersectionExitTime 	-1
scalar IntersectionExampleScenario.node[582].appl 	NumberOfCollisions 	0
scalar IntersectionExampleScenario.node[582].nic.phy80211p 	busyTime 	0
scalar IntersectionExampleScenario.node[582].nic.mac1609_4 	ReceivedUnicastPackets 	0
scalar IntersectionExampleScenario.node[582].nic.mac1609_4 	ReceivedBroadcasts 	0
scalar IntersectionExampleScenario.node[582].nic.mac1609_4 	SentPackets 	0
scalar IntersectionExampleScenario.node[582].nic.mac1609_4 	SNIRLostPackets 	0
scalar IntersectionExampleScenario.node[582].nic.mac1609_4 	RXTXLostPackets 	0
scalar IntersectionExampleScenario.node[582].nic.mac1609_4 	TotalLostPackets 	0
scalar IntersectionExampleScenario.node[582].nic.mac1609_4 	DroppedPacketsInMac 	0
scalar IntersectionExampleScenario.node[582].nic.mac1609_4 	TooLittleTime 	0
scalar IntersectionExampleScenario.node[582].nic.mac1609_4 	TimesIntoBackoff 	0
scalar IntersectionExampleScenario.node[582].nic.mac1609_4 	SlotsBackoff 	0
scalar IntersectionExampleScenario.node[582].nic.mac1609_4 	NumInternalContention 	0
scalar IntersectionExampleScenario.node[582].nic.mac1609_4 	totalBusyTime 	0
scalar IntersectionExampleScenario.node[582].veinsmobility 	startTime 	1784.75
scalar IntersectionExampleScenario.node[582].veinsmobility 	totalTime 	15.25
scalar IntersectionExampleScenario.node[582].veinsmobility 	stopTime 	1800
scalar IntersectionExampleScenario.node[582].veinsmobility 	minSpeed 	5.6500000953674
scalar IntersectionExampleScenario.node[582].veinsmobility 	maxSpeed 	15.457518577576
scalar IntersectionExampleScenario.node[582].veinsmobility 	totalDistance 	205.77336883545
scalar IntersectionExampleScenario.node[582].veinsmobility 	totalCO2Emission 	54.585329101315
scalar IntersectionExampleScenario.node[583].appl 	VehicleRemoved 	0
scalar IntersectionExampleScenario.node[583].appl 	ArrivedAtDest 	0
scalar IntersectionExampleScenario.node[583].appl 	IntersectionEnterTime 	1789
scalar IntersectionExampleScenario.node[583].appl 	IntersectionExitTime 	-1
scalar IntersectionExampleScenario.node[583].appl 	NumberOfCollisions 	0
scalar IntersectionExampleScenario.node[583].nic.phy80211p 	busyTime 	0
scalar IntersectionExampleScenario.node[583].nic.mac1609_4 	ReceivedUnicastPackets 	0
scalar IntersectionExampleScenario.node[583].nic.mac1609_4 	ReceivedBroadcasts 	0
scalar IntersectionExampleScenario.node[583].nic.mac1609_4 	SentPackets 	0
scalar IntersectionExampleScenario.node[583].nic.mac1609_4 	SNIRLostPackets 	0
scalar IntersectionExampleScenario.node[583].nic.mac1609_4 	RXTXLostPackets 	0
scalar IntersectionExampleScenario.node[583].nic.mac1609_4 	TotalLostPackets 	0
scalar IntersectionExampleScenario.node[583].nic.mac1609_4 	DroppedPacketsInMac 	0
scalar IntersectionExampleScenario.node[583].nic.mac1609_4 	TooLittleTime 	0
scalar IntersectionExampleScenario.node[583].nic.mac1609_4 	TimesIntoBackoff 	0
scalar IntersectionExampleScenario.node[583].nic.mac1609_4 	SlotsBackoff 	0
scalar IntersectionExampleScenario.node[583].nic.mac1609_4 	NumInternalContention 	0
scalar IntersectionExampleScenario.node[583].nic.mac1609_4 	totalBusyTime 	0
scalar IntersectionExampleScenario.node[583].veinsmobility 	startTime 	1789
scalar IntersectionExampleScenario.node[583].veinsmobility 	totalTime 	11
scalar IntersectionExampleScenario.node[583].veinsmobility 	stopTime 	1800
scalar IntersectionExampleScenario.node[583].veinsmobility 	minSpeed 	5.6500000953674
scalar IntersectionExampleScenario.node[583].veinsmobility 	maxSpeed 	15.02499961853
scalar IntersectionExampleScenario.node[583].veinsmobility 	totalDistance 	142.64107513428
scalar IntersectionExampleScenario.node[583].veinsmobility 	totalCO2Emission 	43.968290647622
scalar IntersectionExampleScenario.node[584].appl 	VehicleRemoved 	0
scalar IntersectionExampleScenario.node[584].appl 	ArrivedAtDest 	0
scalar IntersectionExampleScenario.node[584].appl 	IntersectionEnterTime 	1789.75
scalar IntersectionExampleScenario.node[584].appl 	IntersectionExitTime 	-1
scalar IntersectionExampleScenario.node[584].appl 	NumberOfCollisions 	0
scalar IntersectionExampleScenario.node[584].nic.phy80211p 	busyTime 	0
scalar IntersectionExampleScenario.node[584].nic.mac1609_4 	ReceivedUnicastPackets 	0
scalar IntersectionExampleScenario.node[584].nic.mac1609_4 	ReceivedBroadcasts 	0
scalar IntersectionExampleScenario.node[584].nic.mac1609_4 	SentPackets 	0
scalar IntersectionExampleScenario.node[584].nic.mac1609_4 	SNIRLostPackets 	0
scalar IntersectionExampleScenario.node[584].nic.mac1609_4 	RXTXLostPackets 	0
scalar IntersectionExampleScenario.node[584].nic.mac1609_4 	TotalLostPackets 	0
scalar IntersectionExampleScenario.node[584].nic.mac1609_4 	DroppedPacketsInMac 	0
scalar IntersectionExampleScenario.node[584].nic.mac1609_4 	TooLittleTime 	0
scalar IntersectionExampleScenario.node[584].nic.mac1609_4 	TimesIntoBackoff 	0
scalar IntersectionExampleScenario.node[584].nic.mac1609_4 	SlotsBackoff 	0
scalar IntersectionExampleScenario.node[584].nic.mac1609_4 	NumInternalContention 	0
scalar IntersectionExampleScenario.node[584].nic.mac1609_4 	totalBusyTime 	0
scalar IntersectionExampleScenario.node[584].veinsmobility 	startTime 	1789.75
scalar IntersectionExampleScenario.node[584].veinsmobility 	totalTime 	10.25
scalar IntersectionExampleScenario.node[584].veinsmobility 	stopTime 	1800
scalar IntersectionExampleScenario.node[584].veinsmobility 	minSpeed 	5.6500000953674
scalar IntersectionExampleScenario.node[584].veinsmobility 	maxSpeed 	15.64999961853
scalar IntersectionExampleScenario.node[584].veinsmobility 	totalDistance 	136.13204956055
scalar IntersectionExampleScenario.node[584].veinsmobility 	totalCO2Emission 	45.450482647924
scalar IntersectionExampleScenario.node[585].appl 	VehicleRemoved 	0
scalar IntersectionExampleScenario.node[585].appl 	ArrivedAtDest 	0
scalar IntersectionExampleScenario.node[585].appl 	IntersectionEnterTime 	1791
scalar IntersectionExampleScenario.node[585].appl 	IntersectionExitTime 	-1
scalar IntersectionExampleScenario.node[585].appl 	NumberOfCollisions 	0
scalar IntersectionExampleScenario.node[585].nic.phy80211p 	busyTime 	0
scalar IntersectionExampleScenario.node[585].nic.mac1609_4 	ReceivedUnicastPackets 	0
scalar IntersectionExampleScenario.node[585].nic.mac1609_4 	ReceivedBroadcasts 	0
scalar IntersectionExampleScenario.node[585].nic.mac1609_4 	SentPackets 	0
scalar IntersectionExampleScenario.node[585].nic.mac1609_4 	SNIRLostPackets 	0
scalar IntersectionExampleScenario.node[585].nic.mac1609_4 	RXTXLostPackets 	0
scalar IntersectionExampleScenario.node[585].nic.mac1609_4 	TotalLostPackets 	0
scalar IntersectionExampleScenario.node[585].nic.mac1609_4 	DroppedPacketsInMac 	0
scalar IntersectionExampleScenario.node[585].nic.mac1609_4 	TooLittleTime 	0
scalar IntersectionExampleScenario.node[585].nic.mac1609_4 	TimesIntoBackoff 	0
scalar IntersectionExampleScenario.node[585].nic.mac1609_4 	SlotsBackoff 	0
scalar IntersectionExampleScenario.node[585].nic.mac1609_4 	NumInternalContention 	0
scalar IntersectionExampleScenario.node[585].nic.mac1609_4 	totalBusyTime 	0
scalar IntersectionExampleScenario.node[585].veinsmobility 	startTime 	1791
scalar IntersectionExampleScenario.node[585].veinsmobility 	totalTime 	9
scalar IntersectionExampleScenario.node[585].veinsmobility 	stopTime 	1800
scalar IntersectionExampleScenario.node[585].veinsmobility 	minSpeed 	5.6500000953674
scalar IntersectionExampleScenario.node[585].veinsmobility 	maxSpeed 	16.27499961853
scalar IntersectionExampleScenario.node[585].veinsmobility 	totalDistance 	119.00482177734
scalar IntersectionExampleScenario.node[585].veinsmobility 	totalCO2Emission 	44.631879744986
scalar IntersectionExampleScenario.node[586].appl 	VehicleRemoved 	0
scalar IntersectionExampleScenario.node[586].appl 	ArrivedAtDest 	0
scalar IntersectionExampleScenario.node[586].appl 	IntersectionEnterTime 	1793
scalar IntersectionExampleScenario.node[586].appl 	IntersectionExitTime 	-1
scalar IntersectionExampleScenario.node[586].appl 	NumberOfCollisions 	0
scalar IntersectionExampleScenario.node[586].nic.phy80211p 	busyTime 	0
scalar IntersectionExampleScenario.node[586].nic.mac1609_4 	ReceivedUnicastPackets 	0
scalar IntersectionExampleScenario.node[586].nic.mac1609_4 	ReceivedBroadcasts 	0
scalar IntersectionExampleScenario.node[586].nic.mac1609_4 	SentPackets 	0
scalar IntersectionExampleScenario.node[586].nic.mac1609_4 	SNIRLostPackets 	0
scalar IntersectionExampleScenario.node[586].nic.mac1609_4 	RXTXLostPackets 	0
scalar IntersectionExampleScenario.node[586].nic.mac1609_4 	TotalLostPackets 	0
scalar IntersectionExampleScenario.node[586].nic.mac1609_4 	DroppedPacketsInMac 	0
scalar IntersectionExampleScenario.node[586].nic.mac1609_4 	TooLittleTime 	0
scalar IntersectionExampleScenario.node[586].nic.mac1609_4 	TimesIntoBackoff 	0
scalar IntersectionExampleScenario.node[586].nic.mac1609_4 	SlotsBackoff 	0
scalar IntersectionExampleScenario.node[586].nic.mac1609_4 	NumInternalContention 	0
scalar IntersectionExampleScenario.node[586].nic.mac1609_4 	totalBusyTime 	0
scalar IntersectionExampleScenario.node[586].veinsmobility 	startTime 	1793
scalar IntersectionExampleScenario.node[586].veinsmobility 	totalTime 	7
scalar IntersectionExampleScenario.node[586].veinsmobility 	stopTime 	1800
scalar IntersectionExampleScenario.node[586].veinsmobility 	minSpeed 	5.6500000953674
scalar IntersectionExampleScenario.node[586].veinsmobility 	maxSpeed 	15.02499961853
scalar IntersectionExampleScenario.node[586].veinsmobility 	totalDistance 	83.988883972168
scalar IntersectionExampleScenario.node[586].veinsmobility 	totalCO2Emission 	35.312785229046
