file 16832675 1591403177                                        
version 2
run nodebug-24-20200605-20:23:59-14344
attr configname nodebug
attr datetime 20200605-20:23:59
attr experiment nodebug
attr inifile omnetpp.ini
attr iterationvars ""
attr iterationvars2 $repetition=24
attr measurement ""
attr network "\"org.car2x.veins.modules.application.ExtTraCIScenarioManagerLaunchd.IntersectionExampleScenario\""
attr processid 14344
attr repetition 24
attr replication #24
attr resultdir results
attr runnumber 24
attr seedset 24
param **.coreDebug false
param **.debug false
param *.**.nic.mac1609_4.bitrate 18Mbps
param *.**.nic.mac1609_4.txPower 20mW
param *.**.nic.mac1609_4.useServiceChannel false
param *.**.nic.phy80211p.analogueModels "xmldoc(\"config.xml\")"
param *.**.nic.phy80211p.decider "xmldoc(\"config.xml\")"
param *.**.nic.phy80211p.sensitivity -89dBm
param *.**.nic.phy80211p.thermalNoise -110dBm
param *.**.nic.phy80211p.usePropagationDelay true
param *.**.nic.phy80211p.useThermalNoise true
param *.annotations.draw false
param *.connectionManager.alpha 2.0
param *.connectionManager.carrierFrequency "5.890e9 Hz"
param *.connectionManager.pMax 20mW
param *.connectionManager.sat -89dBm
param *.connectionManager.sendDirect true
param *.manager.autoShutdown true
param *.manager.host "\"localhost\""
param *.manager.launchConfig "xmldoc(\"paramics.launchd.xml\")"
param *.manager.margin 25
param *.manager.moduleDisplayString "\"\""
param *.manager.moduleName "\"node\""
param *.manager.moduleType "\"org.car2x.veins.nodes.Car\""
param *.manager.port 9999
param *.manager.updateInterval 250ms
param *.node[*0].veinsmobility.accidentCount 0
param *.node[*0].veinsmobility.accidentDuration 30s
param *.node[*0].veinsmobility.accidentStart 75s
param *.node[*].appl.LiderSelectZoneRadio 55.0
param *.node[*].appl.ShareDataZoneRadio 110.0
param *.node[*].appl.TiempoSemaforo 30.0
param *.node[*].appl.beaconInterval 1s
param *.node[*].appl.beaconPriority 3
param *.node[*].appl.dataOnSch false
param *.node[*].appl.dataPriority 2
param *.node[*].appl.debug false
param *.node[*].appl.headerLength "256 bit"
param *.node[*].appl.maxOffset 0.005s
param *.node[*].appl.sendBeacons false
param *.node[*].appl.sendData true
param *.node[*].applType "\"Dummy\""
param *.node[*].mobilityType "\"TraCIMobility\""
param *.node[*].mobilityType.debug true
param *.node[*].veinsmobility.x 0
param *.node[*].veinsmobility.y 0
param *.node[*].veinsmobility.z 1.895
param *.node[*].veinsmobilityType "\"org.car2x.veins.modules.mobility.traci.TraCIMobility\""
param *.node[*].veinsmobilityType.debug true
param *.playgroundSizeX 8500m
param *.playgroundSizeY 8500m
param *.playgroundSizeZ 50m
param *.world.use2D false
param *.world.useTorus false

vector 27446  IntersectionExampleScenario.manager  vehiclesinsim  ETV
attr type  int
vector 27447  IntersectionExampleScenario.manager  realtime  ETV
attr type  int
attr unit  s
vector 27450  IntersectionExampleScenario.node[0].veinsmobility  posx  ETV
vector 27451  IntersectionExampleScenario.node[0].veinsmobility  posy  ETV
vector 27452  IntersectionExampleScenario.node[0].veinsmobility  speed  ETV
vector 27453  IntersectionExampleScenario.node[0].veinsmobility  acceleration  ETV
vector 27454  IntersectionExampleScenario.node[0].veinsmobility  co2emission  ETV
vector 27457  IntersectionExampleScenario.node[1].veinsmobility  posx  ETV
vector 27458  IntersectionExampleScenario.node[1].veinsmobility  posy  ETV
vector 27459  IntersectionExampleScenario.node[1].veinsmobility  speed  ETV
vector 27460  IntersectionExampleScenario.node[1].veinsmobility  acceleration  ETV
vector 27461  IntersectionExampleScenario.node[1].veinsmobility  co2emission  ETV
vector 27464  IntersectionExampleScenario.node[2].veinsmobility  posx  ETV
vector 27465  IntersectionExampleScenario.node[2].veinsmobility  posy  ETV
vector 27466  IntersectionExampleScenario.node[2].veinsmobility  speed  ETV
vector 27467  IntersectionExampleScenario.node[2].veinsmobility  acceleration  ETV
vector 27468  IntersectionExampleScenario.node[2].veinsmobility  co2emission  ETV
vector 27471  IntersectionExampleScenario.node[3].veinsmobility  posx  ETV
vector 27472  IntersectionExampleScenario.node[3].veinsmobility  posy  ETV
vector 27473  IntersectionExampleScenario.node[3].veinsmobility  speed  ETV
vector 27474  IntersectionExampleScenario.node[3].veinsmobility  acceleration  ETV
vector 27475  IntersectionExampleScenario.node[3].veinsmobility  co2emission  ETV
vector 27478  IntersectionExampleScenario.node[4].veinsmobility  posx  ETV
vector 27479  IntersectionExampleScenario.node[4].veinsmobility  posy  ETV
vector 27480  IntersectionExampleScenario.node[4].veinsmobility  speed  ETV
vector 27481  IntersectionExampleScenario.node[4].veinsmobility  acceleration  ETV
vector 27482  IntersectionExampleScenario.node[4].veinsmobility  co2emission  ETV
vector 27485  IntersectionExampleScenario.node[5].veinsmobility  posx  ETV
vector 27486  IntersectionExampleScenario.node[5].veinsmobility  posy  ETV
vector 27487  IntersectionExampleScenario.node[5].veinsmobility  speed  ETV
vector 27488  IntersectionExampleScenario.node[5].veinsmobility  acceleration  ETV
vector 27489  IntersectionExampleScenario.node[5].veinsmobility  co2emission  ETV
vector 27492  IntersectionExampleScenario.node[6].veinsmobility  posx  ETV
vector 27493  IntersectionExampleScenario.node[6].veinsmobility  posy  ETV
vector 27494  IntersectionExampleScenario.node[6].veinsmobility  speed  ETV
vector 27495  IntersectionExampleScenario.node[6].veinsmobility  acceleration  ETV
vector 27496  IntersectionExampleScenario.node[6].veinsmobility  co2emission  ETV
vector 27499  IntersectionExampleScenario.node[7].veinsmobility  posx  ETV
vector 27500  IntersectionExampleScenario.node[7].veinsmobility  posy  ETV
vector 27501  IntersectionExampleScenario.node[7].veinsmobility  speed  ETV
vector 27506  IntersectionExampleScenario.node[8].veinsmobility  posx  ETV
vector 27507  IntersectionExampleScenario.node[8].veinsmobility  posy  ETV
vector 27502  IntersectionExampleScenario.node[7].veinsmobility  acceleration  ETV
vector 27503  IntersectionExampleScenario.node[7].veinsmobility  co2emission  ETV
vector 27508  IntersectionExampleScenario.node[8].veinsmobility  speed  ETV
vector 27509  IntersectionExampleScenario.node[8].veinsmobility  acceleration  ETV
vector 27510  IntersectionExampleScenario.node[8].veinsmobility  co2emission  ETV
vector 27513  IntersectionExampleScenario.node[9].veinsmobility  posx  ETV
vector 27514  IntersectionExampleScenario.node[9].veinsmobility  posy  ETV
vector 27515  IntersectionExampleScenario.node[9].veinsmobility  speed  ETV
vector 27516  IntersectionExampleScenario.node[9].veinsmobility  acceleration  ETV
vector 27517  IntersectionExampleScenario.node[9].veinsmobility  co2emission  ETV
vector 27520  IntersectionExampleScenario.node[10].veinsmobility  posx  ETV
vector 27521  IntersectionExampleScenario.node[10].veinsmobility  posy  ETV
vector 27522  IntersectionExampleScenario.node[10].veinsmobility  speed  ETV
vector 27523  IntersectionExampleScenario.node[10].veinsmobility  acceleration  ETV
vector 27524  IntersectionExampleScenario.node[10].veinsmobility  co2emission  ETV
vector 27527  IntersectionExampleScenario.node[11].veinsmobility  posx  ETV
vector 27528  IntersectionExampleScenario.node[11].veinsmobility  posy  ETV
vector 27529  IntersectionExampleScenario.node[11].veinsmobility  speed  ETV
vector 27530  IntersectionExampleScenario.node[11].veinsmobility  acceleration  ETV
vector 27531  IntersectionExampleScenario.node[11].veinsmobility  co2emission  ETV
vector 27534  IntersectionExampleScenario.node[12].veinsmobility  posx  ETV
vector 27535  IntersectionExampleScenario.node[12].veinsmobility  posy  ETV
vector 27536  IntersectionExampleScenario.node[12].veinsmobility  speed  ETV
vector 27537  IntersectionExampleScenario.node[12].veinsmobility  acceleration  ETV
vector 27538  IntersectionExampleScenario.node[12].veinsmobility  co2emission  ETV
vector 27541  IntersectionExampleScenario.node[13].veinsmobility  posx  ETV
vector 27542  IntersectionExampleScenario.node[13].veinsmobility  posy  ETV
vector 27543  IntersectionExampleScenario.node[13].veinsmobility  speed  ETV
vector 27548  IntersectionExampleScenario.node[14].veinsmobility  posx  ETV
vector 27549  IntersectionExampleScenario.node[14].veinsmobility  posy  ETV
vector 27544  IntersectionExampleScenario.node[13].veinsmobility  acceleration  ETV
vector 27545  IntersectionExampleScenario.node[13].veinsmobility  co2emission  ETV
vector 27550  IntersectionExampleScenario.node[14].veinsmobility  speed  ETV
vector 27551  IntersectionExampleScenario.node[14].veinsmobility  acceleration  ETV
vector 27552  IntersectionExampleScenario.node[14].veinsmobility  co2emission  ETV
vector 27555  IntersectionExampleScenario.node[15].veinsmobility  posx  ETV
vector 27556  IntersectionExampleScenario.node[15].veinsmobility  posy  ETV
vector 27557  IntersectionExampleScenario.node[15].veinsmobility  speed  ETV
vector 27558  IntersectionExampleScenario.node[15].veinsmobility  acceleration  ETV
vector 27559  IntersectionExampleScenario.node[15].veinsmobility  co2emission  ETV
27468	9302 5150 111 3096 8.5 49.25 164 0.973 11.36141391502 493.09962632924 2581.4212800182
27467	14452 4762 111 3096 8.5 49.25 164 -3.5849685668945 2.5 35.964826583862 268.87659629982
27466	19214 5046 104 3096 8.25 49.25 165 5.6500000953674 15.25 2185.0118789673 30091.539931081
27465	24260 5388 97 3096 8 49.25 166 486.85000610352 733.70835876465 89348.825836182 49054811.610176
27464	29648 5390 97 3096 8 49.25 166 486.78659057617 785.82187652588 94985.708610535 56128584.495314
27475	35038 4986 157 3121 10 49.5 159 0.973 11.810082123732 508.49538687659 2854.0891032743
27474	40024 4697 157 3121 10 49.5 159 -3.5987892150879 2.5 38.511121749878 289.97413352837
27473	44721 4886 148 3121 9.75 49.5 160 5.6500000953674 15.875 2187.4261054993 31251.807394893
27472	49607 5227 139 3121 9.5 49.5 161 236.08911132812 483.14999389648 69584.892822266 31005020.324714
27471	54834 5225 139 3121 9.5 49.5 161 184.17810058594 483.33880615234 63994.011108398 27176069.18173
vector 27562  IntersectionExampleScenario.node[16].veinsmobility  posx  ETV
vector 27563  IntersectionExampleScenario.node[16].veinsmobility  posy  ETV
vector 27564  IntersectionExampleScenario.node[16].veinsmobility  speed  ETV
27454	60291 5721 17 3264 3 51 193 0.973 11.90022389248 573.67665338356 3067.993942325
27453	66012 5340 17 3264 3 51 193 -8.1522989273071 4 39.529638290405 492.74731613443
27452	71352 5555 14 3264 2.75 51 194 0 16 2202.00562644 31605.815681774
27451	76907 6263 11 3264 2.5 51 195 184.17810058594 486.85000610352 80333.688354492 35015342.725807
27450	83170 6281 11 3264 2.5 51 195 236.87365722656 486.85000610352 86689.689727783 39563563.001514
vector 27565  IntersectionExampleScenario.node[16].veinsmobility  acceleration  ETV
vector 27566  IntersectionExampleScenario.node[16].veinsmobility  co2emission  ETV
27461	89620 5680 57 3375 6 52.25 186 0.973 12.26218747632 580.87577585703 3216.1298335067
27460	95300 5557 57 3375 6 52.25 186 -4.5 2.5000001192093 41.227170944214 459.25931652363
27459	100857 5754 52 3375 5.75 52.25 187 0 16.5 2242.9847303312 32267.619846426
27458	106611 6063 47 3375 5.5 52.25 188 171.40313720703 483.14999389648 75667.758575439 32469926.197407
27457	112674 6085 47 3375 5.5 52.25 188 486.85000610352 734.88157653809 99465.414367676 53596777.202808
vector 27569  IntersectionExampleScenario.node[17].veinsmobility  posx  ETV
vector 27570  IntersectionExampleScenario.node[17].veinsmobility  posy  ETV
vector 27571  IntersectionExampleScenario.node[17].veinsmobility  speed  ETV
vector 27572  IntersectionExampleScenario.node[17].veinsmobility  acceleration  ETV
vector 27573  IntersectionExampleScenario.node[17].veinsmobility  co2emission  ETV
vector 27576  IntersectionExampleScenario.node[18].veinsmobility  posx  ETV
vector 27577  IntersectionExampleScenario.node[18].veinsmobility  posy  ETV
vector 27578  IntersectionExampleScenario.node[18].veinsmobility  speed  ETV
vector 27579  IntersectionExampleScenario.node[18].veinsmobility  acceleration  ETV
vector 27580  IntersectionExampleScenario.node[18].veinsmobility  co2emission  ETV
vector 27583  IntersectionExampleScenario.node[19].veinsmobility  posx  ETV
vector 27584  IntersectionExampleScenario.node[19].veinsmobility  posy  ETV
vector 27585  IntersectionExampleScenario.node[19].veinsmobility  speed  ETV
vector 27586  IntersectionExampleScenario.node[19].veinsmobility  acceleration  ETV
vector 27587  IntersectionExampleScenario.node[19].veinsmobility  co2emission  ETV
vector 27590  IntersectionExampleScenario.node[20].veinsmobility  posx  ETV
vector 27591  IntersectionExampleScenario.node[20].veinsmobility  posy  ETV
vector 27592  IntersectionExampleScenario.node[20].veinsmobility  speed  ETV
vector 27593  IntersectionExampleScenario.node[20].veinsmobility  acceleration  ETV
vector 27594  IntersectionExampleScenario.node[20].veinsmobility  co2emission  ETV
27482	120363 6177 287 4358 13.5 66 211 0.87724236611116 12.80944146078 641.61140467709 3627.2027260612
27481	126540 5786 287 4358 13.5 66 211 -8.2165298461914 4 43.943227767944 570.7562345548
27480	132326 5930 276 4358 13.25 66 212 0 17.25 2249.5957989693 34217.775515101
27479	138256 6976 265 4358 13 66 213 483.14999389648 483.14999389648 102910.94869995 49721424.236263
27478	145232 6940 265 4358 13 66 213 174.53436279297 732.39277648926 95798.158554077 47223626.482161
27524	152172 5143 1102 4373 26.75 66.25 159 0.973 11.200708441096 456.73025792377 2199.7707180944
27523	157315 4598 1102 4373 26.75 66.25 159 -3.609977722168 2.5 35.964826583862 173.546437922
27522	161913 5048 1079 4373 26.5 66.25 160 5.6500000953674 15.02499961853 2217.4476184845 31251.739127246
27521	166961 5259 1056 4373 26.25 66.25 161 184.17810058594 733.53187561035 72390.111404419 36815025.135914
27520	172220 5314 1056 4373 26.25 66.25 161 486.85000610352 486.85000610352 78382.850982666 38160691.479322
27510	177534 5395 860 4400 23.75 66.75 173 0.973 12.099024792222 567.61585254988 3225.7669789416
27509	182929 5129 860 4400 23.75 66.75 173 -9.4888134002686 4 40.887662887573 535.35535781686
27508	188058 5317 841 4400 23.5 66.75 174 0 16.27499961853 2218.0271503925 32566.985442816
27507	193375 5767 822 4400 23.25 66.75 175 486.85000610352 486.85000610352 85198.751068115 41479012.477524
27506	199142 5756 822 4400 23.25 66.75 175 235.66223144531 785.82187652588 90800.070533752 51166456.539607
vector 27597  IntersectionExampleScenario.node[21].veinsmobility  posx  ETV
vector 27598  IntersectionExampleScenario.node[21].veinsmobility  posy  ETV
27489	205052 6589 379 4465 15.5 68 211 0.973 12.099024792222 631.16386584071 3210.7661260528
27488	211641 6481 379 4465 15.5 68 211 -4.5 2.5000002384186 42.415441513062 478.37151051134
27487	218122 6734 366 4465 15.25 68 212 0 16.388542175293 2300.1215689927 33511.276562057
27486	224856 6973 353 4465 15 68 213 483.14999389648 733.138671875 110891.76795959 58753832.261725
27485	231829 6958 353 4465 15 68 213 161.25622558594 486.86645507812 86835.554534912 37704915.919438
vector 27599  IntersectionExampleScenario.node[21].veinsmobility  speed  ETV
vector 27600  IntersectionExampleScenario.node[21].veinsmobility  acceleration  ETV
vector 27601  IntersectionExampleScenario.node[21].veinsmobility  co2emission  ETV
27496	239034 6197 578 4640 19.25 71 208 0.973 11.810082123732 589.81763811684 3135.8361137568
27495	245231 6486 578 4640 19.25 71 208 -3.7827062606812 2.5 39.699392318726 375.49257031376
27494	251717 6531 563 4640 19 71 209 0 15.875 2264.1816106737 30532.82550137
27493	258248 6899 548 4640 18.75 71 210 236.28442382812 483.14999389648 93411.905853271 42563179.649509
27492	265147 6874 548 4640 18.75 71 210 164.75622558594 483.14999389648 84432.621887207 36096723.747639
27503	272021 6109 822 4731 23.25 72.75 199 0.973 11.90022389248 580.19145470261 3105.7929831312
27502	278130 6107 822 4731 23.25 72.75 199 -4.5 2.5 39.869146347046 384.17896323421
27501	284237 6286 805 4731 23 72.75 200 2.1623668670654 16 2273.6530838013 30669.694128431
27500	290523 6617 788 4731 22.75 72.75 201 483.14999389648 733.48016357422 105346.079422 56247941.96132
27499	297140 6598 788 4731 22.75 72.75 201 168.26715087891 486.85000610352 80515.674255371 34328817.998253
27517	303738 5919 1035 4822 26 74.5 195 0.973 11.990504229548 571.30216588696 3086.5978395666
27516	309657 6015 1035 4822 26 74.5 195 -4.5 2.5 39.529638290405 339.40359768618
27515	315672 6216 1014 4822 25.75 74.5 196 2.3286550045013 16.125 2313.7658312321 31469.300871297
27514	321888 6500 993 4822 25.5 74.5 197 483.14999389648 483.14999389648 95180.548797607 45986481.570628
27513	328388 6479 993 4822 25.5 74.5 197 161.99920654297 734.68299865723 86181.495513916 42335000.007034
27552	334867 4978 2348 5082 41.25 79.5 154 0.973 11.648172402475 470.76336111104 2462.8829942015
27551	339845 4552 2348 5082 41.25 79.5 154 -3.1964302062988 2.5 38.341367721558 191.50694040174
27550	344397 4882 2325 5082 41 79.5 155 5.6500000953674 15.64999961853 2217.1332235336 32350.133803948
27549	349279 5148 2302 5082 40.75 79.5 156 483.14999389648 483.14999389648 75371.399047852 36415690.989939
27548	354427 5117 2302 5082 40.75 79.5 156 184.17810058594 733.26556396484 69982.629058838 35533807.588377
27545	359544 5101 2302 5121 40.75 80.25 159 0.973 11.450879080643 482.94347810658 2511.3609332948
27544	364645 4983 2302 5121 40.75 80.25 159 -3.5196304321289 2.5 37.15309715271 228.8271528642
27543	369628 4996 2281 5121 40.5 80.25 160 5.6500000953674 15.375 2203.5327606201 31186.601683966
27542	374624 5311 2260 5121 40.25 80.25 161 237.80590820312 486.85000610352 69884.718475342 31296989.773273
27541	379935 5306 2260 5121 40.25 80.25 161 483.14999389648 785.82187652588 92095.06426239 54471775.94014
27531	385241 6022 1692 5231 33.25 82.5 198 0.973 11.36141391502 566.59752721471 2819.3021270863
27530	391263 5229 1692 5231 33.25 82.5 198 -7.3098497390747 4 38.341367721558 472.29401981618
27529	396492 5814 1671 5231 33 82.5 199 0 15.25 2177.2194693089 30592.548304231
27528	402306 6573 1649 5231 32.75 82.5 200 184.17810058594 483.36395263672 82308.831939697 35786213.868095
27527	408879 6531 1649 5231 32.75 82.5 200 486.85000610352 733.04777526855 105551.7490387 56709544.193479
27538	415410 5989 1780 5242 34.25 82.75 195 0.973 11.200708441096 550.35953592161 2711.1500935352
27537	421399 5626 1780 5242 34.25 82.75 195 -7.641104221344 4 36.304327011108 462.88744726314
27536	427025 5891 1757 5242 34 82.75 196 0 15.058855056763 2212.2581733465 30495.669537594
27535	432916 6486 1734 5242 33.75 82.75 197 236.24798583984 785.82187652588 101748.6831131 56820358.20772
27534	439402 6502 1734 5242 33.75 82.75 197 483.14999389648 483.14999389648 95180.548797607 45986481.570628
27559	445904 4785 2996 5374 48.25 85.75 151 0.92307293469138 11.880150943 519.55487027031 3025.6389159946
27558	450689 4700 2996 5374 48.25 85.75 151 -3.0373992919922 2.5 41.227170944214 235.95596740989
27557	455389 4785 2971 5374 48 85.75 152 5.6500000953674 16.421876907349 2221.8610496521 33261.917024889
27556	460174 5026 2946 5374 47.75 85.75 153 235.80950927734 785.82187652588 79885.638053894 45747423.71014
27555	465200 5050 2946 5374 47.75 85.75 153 483.14999389648 483.14999389648 73921.949066162 35715389.240132
vector 27604  IntersectionExampleScenario.node[22].veinsmobility  posx  ETV
vector 27605  IntersectionExampleScenario.node[22].veinsmobility  posy  ETV
vector 27606  IntersectionExampleScenario.node[22].veinsmobility  speed  ETV
vector 27607  IntersectionExampleScenario.node[22].veinsmobility  acceleration  ETV
vector 27608  IntersectionExampleScenario.node[22].veinsmobility  co2emission  ETV
vector 27611  IntersectionExampleScenario.node[23].veinsmobility  posx  ETV
vector 27612  IntersectionExampleScenario.node[23].veinsmobility  posy  ETV
vector 27613  IntersectionExampleScenario.node[23].veinsmobility  speed  ETV
vector 27614  IntersectionExampleScenario.node[23].veinsmobility  acceleration  ETV
vector 27615  IntersectionExampleScenario.node[23].veinsmobility  co2emission  ETV
vector 27618  IntersectionExampleScenario.node[24].veinsmobility  posx  ETV
vector 27619  IntersectionExampleScenario.node[24].veinsmobility  posy  ETV
vector 27620  IntersectionExampleScenario.node[24].veinsmobility  speed  ETV
vector 27621  IntersectionExampleScenario.node[24].veinsmobility  acceleration  ETV
vector 27622  IntersectionExampleScenario.node[24].veinsmobility  co2emission  ETV
27566	471453 5761 3289 6034 51.25 98.25 189 0.973 11.810082123732 560.69999323427 3014.1392180052
27565	477214 5471 3289 6034 51.25 98.25 189 -7.7750473022461 4 38.511121749878 481.76489070548
27564	482685 5618 3264 6034 51 98.25 190 0 15.875 2181.7101407051 30752.64095389
27563	488303 6230 3239 6034 50.75 98.25 191 486.85000610352 734.25172424316 101216.5448761 54636758.971596
27562	494533 6292 3239 6034 50.75 98.25 191 486.63604736328 785.82187652588 107169.02893829 62006377.673564
vector 27625  IntersectionExampleScenario.node[25].veinsmobility  posx  ETV
vector 27626  IntersectionExampleScenario.node[25].veinsmobility  posy  ETV
vector 27627  IntersectionExampleScenario.node[25].veinsmobility  speed  ETV
vector 27628  IntersectionExampleScenario.node[25].veinsmobility  acceleration  ETV
vector 27629  IntersectionExampleScenario.node[25].veinsmobility  co2emission  ETV
vector 27632  IntersectionExampleScenario.node[26].veinsmobility  posx  ETV
vector 27633  IntersectionExampleScenario.node[26].veinsmobility  posy  ETV
vector 27634  IntersectionExampleScenario.node[26].veinsmobility  speed  ETV
vector 27635  IntersectionExampleScenario.node[26].veinsmobility  acceleration  ETV
vector 27636  IntersectionExampleScenario.node[26].veinsmobility  co2emission  ETV
vector 27639  IntersectionExampleScenario.node[27].veinsmobility  posx  ETV
vector 27640  IntersectionExampleScenario.node[27].veinsmobility  posy  ETV
vector 27641  IntersectionExampleScenario.node[27].veinsmobility  speed  ETV
vector 27642  IntersectionExampleScenario.node[27].veinsmobility  acceleration  ETV
vector 27643  IntersectionExampleScenario.node[27].veinsmobility  co2emission  ETV
vector 27646  IntersectionExampleScenario.node[28].veinsmobility  posx  ETV
vector 27647  IntersectionExampleScenario.node[28].veinsmobility  posy  ETV
vector 27648  IntersectionExampleScenario.node[28].veinsmobility  speed  ETV
vector 27649  IntersectionExampleScenario.node[28].veinsmobility  acceleration  ETV
vector 27650  IntersectionExampleScenario.node[28].veinsmobility  co2emission  ETV
vector 27653  IntersectionExampleScenario.node[29].veinsmobility  posx  ETV
vector 27654  IntersectionExampleScenario.node[29].veinsmobility  posy  ETV
vector 27655  IntersectionExampleScenario.node[29].veinsmobility  speed  ETV
vector 27656  IntersectionExampleScenario.node[29].veinsmobility  acceleration  ETV
vector 27657  IntersectionExampleScenario.node[29].veinsmobility  co2emission  ETV
vector 27660  IntersectionExampleScenario.node[30].veinsmobility  posx  ETV
vector 27661  IntersectionExampleScenario.node[30].veinsmobility  posy  ETV
vector 27662  IntersectionExampleScenario.node[30].veinsmobility  speed  ETV
vector 27663  IntersectionExampleScenario.node[30].veinsmobility  acceleration  ETV
vector 27664  IntersectionExampleScenario.node[30].veinsmobility  co2emission  ETV
vector 27667  IntersectionExampleScenario.node[31].veinsmobility  posx  ETV
vector 27668  IntersectionExampleScenario.node[31].veinsmobility  posy  ETV
vector 27669  IntersectionExampleScenario.node[31].veinsmobility  speed  ETV
vector 27670  IntersectionExampleScenario.node[31].veinsmobility  acceleration  ETV
vector 27671  IntersectionExampleScenario.node[31].veinsmobility  co2emission  ETV
vector 27674  IntersectionExampleScenario.node[32].veinsmobility  posx  ETV
vector 27675  IntersectionExampleScenario.node[32].veinsmobility  posy  ETV
vector 27681  IntersectionExampleScenario.node[33].veinsmobility  posx  ETV
vector 27682  IntersectionExampleScenario.node[33].veinsmobility  posy  ETV
vector 27688  IntersectionExampleScenario.node[34].veinsmobility  posx  ETV
vector 27689  IntersectionExampleScenario.node[34].veinsmobility  posy  ETV
vector 27676  IntersectionExampleScenario.node[32].veinsmobility  speed  ETV
vector 27677  IntersectionExampleScenario.node[32].veinsmobility  acceleration  ETV
vector 27678  IntersectionExampleScenario.node[32].veinsmobility  co2emission  ETV
vector 27683  IntersectionExampleScenario.node[33].veinsmobility  speed  ETV
vector 27690  IntersectionExampleScenario.node[34].veinsmobility  speed  ETV
vector 27684  IntersectionExampleScenario.node[33].veinsmobility  acceleration  ETV
vector 27685  IntersectionExampleScenario.node[33].veinsmobility  co2emission  ETV
vector 27691  IntersectionExampleScenario.node[34].veinsmobility  acceleration  ETV
vector 27692  IntersectionExampleScenario.node[34].veinsmobility  co2emission  ETV
27573	504835 6476 3826 6861 58.75 113 218 0.973 12.099024792222 608.35745358732 3235.3846420681
27572	511311 5893 3826 6861 58.75 113 218 -37.766166687012 4 40.038900375366 1775.7514605353
27571	517204 6134 3809 6861 58.5 113 219 0 16.27499961853 2205.6456460953 32417.346843113
27570	523338 7285 3792 6861 58.25 113 220 184.17810058594 486.85000610352 92274.477722168 40698700.354876
27569	530623 7305 3792 6861 58.25 113 220 235.31896972656 486.85000610352 98821.978515625 45465842.708515
27580	537928 6557 3876 6911 59.5 113.5 217 0.973 11.450879080643 581.93898391618 2846.8957258273
27579	544485 5753 3876 6911 59.5 113.5 217 -14.607051849365 4 36.98334312439 669.71607479113
27578	550238 6276 3859 6911 59.25 113.5 218 0 15.375 2208.5760946274 31001.716126186
27577	556514 7276 3842 6911 59 113.5 219 237.32635498047 785.82187652588 112776.29010773 62294957.442666
27576	563790 7281 3842 6911 59 113.5 219 483.14999389648 483.14999389648 105809.84866333 51122027.735876
27594	571071 6524 4101 7111 62.5 115.5 213 0.973 11.200708441096 553.12517078835 2627.263162216
27593	577595 6565 4101 7111 62.5 115.5 213 -3.743771314621 2.5000001192093 35.455564498901 331.54345711177
27592	584160 6836 4080 7111 62.25 115.5 214 0 15.02499961853 2212.0053432509 28496.692065131
27591	590996 7129 4059 7111 62 115.5 215 176.21716308594 483.30224609375 87662.370880127 37791562.842043
27590	598125 7149 4059 7111 62 115.5 215 486.85000610352 732.0887298584 113178.13859558 60628514.379426
27587	605274 6922 3983 7111 61 115.5 219 0.973 11.200708441096 588.77105677358 2795.8801143737
27586	612196 6693 3983 7111 61 115.5 219 -4.5 2.5 36.813589096069 450.94119492613
27585	618889 6972 3964 7111 60.75 115.5 220 0 15.138740539551 2259.5185466632 30611.061711405
27584	625861 7333 3945 7111 60.5 115.5 221 486.71780395508 806.11563110352 124496.44394684 72433340.809713
27583	633194 7351 3945 7111 60.5 115.5 221 238.09606933594 483.14999389648 98476.299438477 44921391.453594
27601	640545 5956 4495 7261 68.5 117 195 0.973 11.200708441096 543.92191049344 2652.9453629755
27600	646501 6140 4495 7261 68.5 117 195 -2.2292137145996 2.5000019073486 37.921407699585 280.54282517008
27599	652641 6417 4480 7261 68.25 117 196 2.2606868743896 15.277261734009 2205.5809085369 28512.627936816
27598	659058 6557 4465 7261 68 117 197 483.12741088867 785.82187652588 111171.36031342 64593944.41242
27597	665615 6563 4465 7261 68 117 197 483.14999389648 732.70785522461 103713.64440918 55650644.223939
vector 27695  IntersectionExampleScenario.node[35].veinsmobility  posx  ETV
vector 27696  IntersectionExampleScenario.node[35].veinsmobility  posy  ETV
vector 27697  IntersectionExampleScenario.node[35].veinsmobility  speed  ETV
vector 27698  IntersectionExampleScenario.node[35].veinsmobility  acceleration  ETV
vector 27699  IntersectionExampleScenario.node[35].veinsmobility  co2emission  ETV
vector 27702  IntersectionExampleScenario.node[36].veinsmobility  posx  ETV
vector 27703  IntersectionExampleScenario.node[36].veinsmobility  posy  ETV
vector 27704  IntersectionExampleScenario.node[36].veinsmobility  speed  ETV
vector 27705  IntersectionExampleScenario.node[36].veinsmobility  acceleration  ETV
vector 27706  IntersectionExampleScenario.node[36].veinsmobility  co2emission  ETV
27608	672980 5211 5433 8327 87 126.75 160 0.973 11.450879080643 484.37932320217 2555.9635492796
27607	678191 5118 5433 8327 87 126.75 160 -3.3734817504883 2.5 36.98334312439 230.41217159617
27606	683309 5138 5420 8327 86.75 126.75 161 5.6500000953674 15.375 2214.4711408615 31287.143047217
27605	688447 5421 5407 8327 86.5 126.75 162 184.17810058594 486.87692260742 64540.105133057 27511728.912238
27604	693868 5453 5407 8327 86.5 126.75 162 234.96624755859 486.85000610352 70158.220397949 31378641.004026
vector 27709  IntersectionExampleScenario.node[37].veinsmobility  posx  ETV
vector 27710  IntersectionExampleScenario.node[37].veinsmobility  posy  ETV
vector 27711  IntersectionExampleScenario.node[37].veinsmobility  speed  ETV
vector 27716  IntersectionExampleScenario.node[38].veinsmobility  posx  ETV
vector 27717  IntersectionExampleScenario.node[38].veinsmobility  posy  ETV
vector 27712  IntersectionExampleScenario.node[37].veinsmobility  acceleration  ETV
vector 27713  IntersectionExampleScenario.node[37].veinsmobility  co2emission  ETV
vector 27718  IntersectionExampleScenario.node[38].veinsmobility  speed  ETV
vector 27719  IntersectionExampleScenario.node[38].veinsmobility  acceleration  ETV
vector 27720  IntersectionExampleScenario.node[38].veinsmobility  co2emission  ETV
vector 27723  IntersectionExampleScenario.node[39].veinsmobility  posx  ETV
vector 27724  IntersectionExampleScenario.node[39].veinsmobility  posy  ETV
vector 27725  IntersectionExampleScenario.node[39].veinsmobility  speed  ETV
vector 27726  IntersectionExampleScenario.node[39].veinsmobility  acceleration  ETV
vector 27727  IntersectionExampleScenario.node[39].veinsmobility  co2emission  ETV
vector 27730  IntersectionExampleScenario.node[40].veinsmobility  posx  ETV
vector 27731  IntersectionExampleScenario.node[40].veinsmobility  posy  ETV
vector 27737  IntersectionExampleScenario.node[41].veinsmobility  posx  ETV
vector 27738  IntersectionExampleScenario.node[41].veinsmobility  posy  ETV
vector 27732  IntersectionExampleScenario.node[40].veinsmobility  speed  ETV
vector 27733  IntersectionExampleScenario.node[40].veinsmobility  acceleration  ETV
vector 27734  IntersectionExampleScenario.node[40].veinsmobility  co2emission  ETV
vector 27739  IntersectionExampleScenario.node[41].veinsmobility  speed  ETV
vector 27740  IntersectionExampleScenario.node[41].veinsmobility  acceleration  ETV
vector 27741  IntersectionExampleScenario.node[41].veinsmobility  co2emission  ETV
vector 27744  IntersectionExampleScenario.node[42].veinsmobility  posx  ETV
vector 27745  IntersectionExampleScenario.node[42].veinsmobility  posy  ETV
vector 27746  IntersectionExampleScenario.node[42].veinsmobility  speed  ETV
vector 27747  IntersectionExampleScenario.node[42].veinsmobility  acceleration  ETV
vector 27748  IntersectionExampleScenario.node[42].veinsmobility  co2emission  ETV
vector 27751  IntersectionExampleScenario.node[43].veinsmobility  posx  ETV
vector 27752  IntersectionExampleScenario.node[43].veinsmobility  posy  ETV
vector 27753  IntersectionExampleScenario.node[43].veinsmobility  speed  ETV
vector 27754  IntersectionExampleScenario.node[43].veinsmobility  acceleration  ETV
vector 27755  IntersectionExampleScenario.node[43].veinsmobility  co2emission  ETV
27615	702128 6043 5879 10073 95.5 143.75 194 0.96333723109819 12.099024792222 580.36298040417 3213.8921754546
27614	708171 5812 5879 10073 95.5 143.75 194 -8.4645347595215 4 40.208654403687 508.79580839728
27613	713983 5881 5864 10073 95.25 143.75 195 0 16.27499961853 2194.4702582359 31821.817566772
27612	719864 6623 5849 10073 95 143.75 196 184.17810058594 486.85000610352 80909.447143555 35314717.431498
27611	726487 6646 5849 10073 95 143.75 196 238.72613525391 486.85000610352 87376.637268066 39951435.430165
27622	733133 5990 6034 10162 98.25 144.75 187 0.973 11.200708441096 539.63944376069 2658.3830874014
27621	739123 5543 6034 10162 98.25 144.75 187 -8.6810245513916 4 36.134572982788 467.99787660457
27620	744666 5886 6021 10162 98 144.75 188 0 15.02499961853 2196.9566392899 30075.092351361
27619	750552 6410 6008 10162 97.75 144.75 189 483.14999389648 785.82187652588 106209.63459015 61607355.282083
27618	756962 6418 6008 10162 97.75 144.75 189 483.14999389648 732.44580078125 99972.278305054 53923252.219042
27629	763380 5966 6123 10262 100.5 146 183 0.973 11.200708441096 533.96035281569 2657.5349543895
27628	769346 5613 6123 10262 100.5 146 183 -4.5 2.5000019073486 35.455564498901 391.64978592876
27627	774959 6131 6112 10262 100.25 146 184 1.4788503646851 15.02499961853 2282.4751344919 30888.46741598
27626	781090 6285 6101 10262 100 146 185 236.50769042969 802.70781707764 97413.060043335 55987053.471727
27625	787375 6300 6101 10262 100 146 185 483.14999389648 483.14999389648 89382.74887085 43185274.571402
vector 27758  IntersectionExampleScenario.node[44].veinsmobility  posx  ETV
vector 27759  IntersectionExampleScenario.node[44].veinsmobility  posy  ETV
27636	793829 5564 6218 10318 103 146.75 176 0.973 11.648172402475 551.6196022476 3025.994219889
27635	799393 5541 6218 10318 103 146.75 176 -2.9031562805176 2.5000019073486 39.869146347046 324.48055558329
27634	804934 5704 6207 10318 102.75 146.75 177 4.2791810035706 15.64999961853 2193.0219759941 29865.801446877
27633	810638 6050 6196 10318 102.5 146.75 178 184.17810058594 483.16540527344 71487.645690918 30469655.064821
27632	816688 6059 6196 10318 102.5 146.75 178 486.85000610352 735.01202392578 94789.481079102 51444759.264302
vector 27765  IntersectionExampleScenario.node[45].veinsmobility  posx  ETV
vector 27766  IntersectionExampleScenario.node[45].veinsmobility  posy  ETV
vector 27760  IntersectionExampleScenario.node[44].veinsmobility  speed  ETV
vector 27761  IntersectionExampleScenario.node[44].veinsmobility  acceleration  ETV
vector 27762  IntersectionExampleScenario.node[44].veinsmobility  co2emission  ETV
vector 27767  IntersectionExampleScenario.node[45].veinsmobility  speed  ETV
27650	823226 5315 6364 10358 106 147.25 166 0.973 11.637032090584 551.32845635728 2982.5031087475
27649	828541 5412 6364 10358 106 147.25 166 -3.7737083435059 2.5 39.937982559204 293.52614566349
27648	833953 5502 6349 10358 105.75 147.25 167 5.6500000953674 15.974412918091 2220.6895923615 31149.255923108
27647	839455 5720 6334 10358 105.5 147.25 168 235.61279296875 785.82187652588 87617.692573547 49846827.763579
27646	845175 5729 6334 10358 105.5 147.25 168 483.14999389648 483.14999389648 81169.198974609 39216897.989165
vector 27768  IntersectionExampleScenario.node[45].veinsmobility  acceleration  ETV
vector 27769  IntersectionExampleScenario.node[45].veinsmobility  co2emission  ETV
vector 27772  IntersectionExampleScenario.node[46].veinsmobility  posx  ETV
vector 27773  IntersectionExampleScenario.node[46].veinsmobility  posy  ETV
vector 27779  IntersectionExampleScenario.node[47].veinsmobility  posx  ETV
vector 27780  IntersectionExampleScenario.node[47].veinsmobility  posy  ETV
vector 27774  IntersectionExampleScenario.node[46].veinsmobility  speed  ETV
vector 27775  IntersectionExampleScenario.node[46].veinsmobility  acceleration  ETV
vector 27776  IntersectionExampleScenario.node[46].veinsmobility  co2emission  ETV
vector 27781  IntersectionExampleScenario.node[47].veinsmobility  speed  ETV
vector 27782  IntersectionExampleScenario.node[47].veinsmobility  acceleration  ETV
vector 27783  IntersectionExampleScenario.node[47].veinsmobility  co2emission  ETV
27671	851875 5329 6727 10785 111.5 152.25 164 0.973 11.36141391502 532.00555219763 3126.7861815747
27670	857204 5202 6727 10785 111.5 152.25 164 -3.4755821228027 2.5 37.32285118103 326.08541925159
27669	862406 5329 6708 10785 111.25 152.25 165 5.6500000953674 15.25 2190.0015897751 30316.404910971
27668	867735 5678 6689 10785 111 152.25 166 486.80102539062 785.82187652588 95016.167015076 56152039.446157
27667	873413 5675 6689 10785 111 152.25 166 235.158203125 483.14999389648 71768.257965088 31989749.137015
vector 27786  IntersectionExampleScenario.node[48].veinsmobility  posx  ETV
vector 27787  IntersectionExampleScenario.node[48].veinsmobility  posy  ETV
vector 27788  IntersectionExampleScenario.node[48].veinsmobility  speed  ETV
vector 27789  IntersectionExampleScenario.node[48].veinsmobility  acceleration  ETV
vector 27790  IntersectionExampleScenario.node[48].veinsmobility  co2emission  ETV
27692	879489 5423 6836 10899 112.75 153.5 164 0.973 11.200708441096 496.09056999608 2403.092581435
27691	884912 5457 6836 10899 112.75 153.5 164 -3.5071105957031 2.5 37.15309715271 234.85543488239
27690	890369 5618 6811 10899 112.5 153.5 165 5.6500000953674 15.02499961853 2200.6534867287 30608.975571697
27689	895987 5655 6786 10899 112.25 153.5 166 184.17810058594 486.85000610352 66499.510986328 28468307.652246
27688	901642 5685 6786 10899 112.25 153.5 166 238.38018798828 486.85000610352 72244.627593994 32403771.166779
27685	907327 5721 6836 11060 112.75 155.25 171 0.973 11.200708441096 513.53834900072 2425.0902870226
27684	913048 5622 6836 11060 112.75 155.25 171 -4.5 2.5 37.32285118103 258.51782422636
27683	918670 5712 6811 11060 112.5 155.25 172 5.6500000953674 15.028920173645 2272.6718411446 31385.403107226
27682	924382 5926 6786 11060 112.25 155.25 173 486.85000610352 807.09531402588 100214.71761322 60166297.890562
27681	930308 5921 6786 11060 112.25 155.25 173 236.13049316406 483.14999389648 75176.215759277 33634200.311109
vector 27793  IntersectionExampleScenario.node[49].veinsmobility  posx  ETV
vector 27794  IntersectionExampleScenario.node[49].veinsmobility  posy  ETV
vector 27795  IntersectionExampleScenario.node[49].veinsmobility  speed  ETV
vector 27800  IntersectionExampleScenario.node[50].veinsmobility  posx  ETV
vector 27801  IntersectionExampleScenario.node[50].veinsmobility  posy  ETV
vector 27796  IntersectionExampleScenario.node[49].veinsmobility  acceleration  ETV
vector 27797  IntersectionExampleScenario.node[49].veinsmobility  co2emission  ETV
vector 27802  IntersectionExampleScenario.node[50].veinsmobility  speed  ETV
vector 27803  IntersectionExampleScenario.node[50].veinsmobility  acceleration  ETV
vector 27804  IntersectionExampleScenario.node[50].veinsmobility  co2emission  ETV
27699	937031 5028 7440 11237 118.75 157 154 0.973 11.450879080643 494.03334749012 2615.0461199247
27698	942059 4998 7440 11237 118.75 157 154 -3.1211853027344 2.5 41.227170944214 210.27485239387
27697	947057 5031 7413 11237 118.5 157 155 5.6500000953674 15.974000930786 2208.5133523941 32557.531783473
27696	952088 5335 7386 11237 118.25 157 156 184.17810058594 486.85000610352 62046.559844971 26427474.389329
27695	957423 5342 7386 11237 118.25 157 156 236.89593505859 486.85000610352 67890.143768311 30467860.586608
vector 27807  IntersectionExampleScenario.node[51].veinsmobility  posx  ETV
vector 27808  IntersectionExampleScenario.node[51].veinsmobility  posy  ETV
vector 27809  IntersectionExampleScenario.node[51].veinsmobility  speed  ETV
vector 27814  IntersectionExampleScenario.node[52].veinsmobility  posx  ETV
vector 27815  IntersectionExampleScenario.node[52].veinsmobility  posy  ETV
vector 27810  IntersectionExampleScenario.node[51].veinsmobility  acceleration  ETV
vector 27811  IntersectionExampleScenario.node[51].veinsmobility  co2emission  ETV
27657	963320 6529 6518 11585 108.5 160.25 208 0.973 11.648172402475 580.15891236005 2966.0083905118
27656	969849 6018 6518 11585 108.5 160.25 208 -7.0929417610168 4 38.341367721558 482.03536989279
27655	975867 6342 6501 11585 108.25 160.25 209 0 15.64999961853 2212.6930657625 31413.159395651
27654	982209 7208 6484 11585 108 160.25 210 483.14999389648 483.14999389648 101461.49871826 49021122.486456
27653	989417 7175 6484 11585 108 160.25 210 184.17810058594 733.41819763184 95432.851608276 47532222.932405
vector 27816  IntersectionExampleScenario.node[52].veinsmobility  speed  ETV
27643	996670 6906 6321 11613 105.25 160.5 222 0.973 11.36141391502 582.09711853945 2801.8916539073
27642	1003576 6155 6321 11613 105.25 160.5 222 -9.7108669281006 4 36.98334312439 553.88228828285
27641	1009731 6563 6308 11613 105 160.5 223 0 15.25 2175.0578637123 30213.102656193
27640	1016294 7619 6295 11613 104.75 160.5 224 486.85000610352 732.63011169434 117378.24972534 62558816.514812
27639	1023913 7680 6295 11613 104.75 160.5 224 486.63604736328 785.82187652588 123784.27115631 70407139.923333
vector 27817  IntersectionExampleScenario.node[52].veinsmobility  acceleration  ETV
vector 27818  IntersectionExampleScenario.node[52].veinsmobility  co2emission  ETV
27664	1031762 6590 6655 11721 110.5 161.5 205 0.973 11.450879080643 568.69625726479 2823.6782172079
27663	1038352 6552 6655 11721 110.5 161.5 205 -3.9593255519867 2.5000019073486 38.511121749878 370.30882130061
27662	1044904 6854 6638 11721 110.25 161.5 206 0 15.375 2202.4593733083 30164.071516912
27661	1051758 7104 6620 11721 110 161.5 207 238.10235595703 486.85000610352 92476.061004639 42355985.118622
27660	1058862 7101 6620 11721 110 161.5 207 482.94241333008 785.82187652588 115454.86829376 66313567.685601
27678	1065963 6480 6811 11828 112.5 162.5 201 0.973 11.648172402475 568.42058745913 2908.0683141755
27677	1072443 6657 6811 11828 112.5 162.5 201 -4.1475563049316 2.5 38.511121749878 383.50991784309
27676	1079100 6789 6786 11828 112.25 162.5 202 0 15.64999961853 2247.9306615675 31290.700454688
27675	1085889 6979 6765 11828 112 162.5 203 483.14999389648 483.14999389648 98079.448760986 47387085.070241
27674	1092868 6926 6765 11828 112 162.5 203 177.97814941406 735.29162597656 91326.212188721 45411123.730233
27713	1099794 5359 8447 12268 127.75 167.25 159 0.973 11.450879080643 491.05450750464 2603.220986564
27712	1105153 5129 8447 12268 127.75 167.25 159 -3.6518669128418 2.5 37.32285118103 240.09861076932
27711	1110282 5254 8416 12268 127.5 167.25 160 5.6500000953674 15.375 2207.0050649643 31294.309495226
27710	1115536 5566 8385 12268 127.25 167.25 161 483.14999389648 733.0027923584 86318.335647583 47247303.902865
27709	1121102 5544 8385 12268 127.25 167.25 161 184.17810058594 486.85000610352 64092.609924316 27306372.022077
vector 27821  IntersectionExampleScenario.node[53].veinsmobility  posx  ETV
vector 27822  IntersectionExampleScenario.node[53].veinsmobility  posy  ETV
vector 27823  IntersectionExampleScenario.node[53].veinsmobility  speed  ETV
vector 27824  IntersectionExampleScenario.node[53].veinsmobility  acceleration  ETV
vector 27825  IntersectionExampleScenario.node[53].veinsmobility  co2emission  ETV
27720	1127047 5513 8513 12437 128.25 169 164 0.973 11.810082123732 526.79522462318 2847.1069613592
27719	1132560 5064 8513 12437 128.25 169 164 -3.2602157592773 2.5 39.699392318726 279.50695237916
27718	1137624 5395 8480 12437 128 169 165 5.6500000953674 15.875 2270.4309139252 32753.715018757
27717	1143019 5745 8447 12437 127.75 169 166 238.98028564453 483.14999389648 72315.220916748 32406379.783042
27716	1148764 5722 8447 12437 127.75 169 166 160.43438720703 483.14999389648 64249.208404541 26989498.128375
vector 27828  IntersectionExampleScenario.node[54].veinsmobility  posx  ETV
vector 27829  IntersectionExampleScenario.node[54].veinsmobility  posy  ETV
vector 27830  IntersectionExampleScenario.node[54].veinsmobility  speed  ETV
vector 27831  IntersectionExampleScenario.node[54].veinsmobility  acceleration  ETV
vector 27832  IntersectionExampleScenario.node[54].veinsmobility  co2emission  ETV
vector 27835  IntersectionExampleScenario.node[55].veinsmobility  posx  ETV
vector 27836  IntersectionExampleScenario.node[55].veinsmobility  posy  ETV
vector 27837  IntersectionExampleScenario.node[55].veinsmobility  speed  ETV
vector 27838  IntersectionExampleScenario.node[55].veinsmobility  acceleration  ETV
vector 27839  IntersectionExampleScenario.node[55].veinsmobility  co2emission  ETV
vector 27842  IntersectionExampleScenario.node[56].veinsmobility  posx  ETV
vector 27843  IntersectionExampleScenario.node[56].veinsmobility  posy  ETV
vector 27844  IntersectionExampleScenario.node[56].veinsmobility  speed  ETV
vector 27845  IntersectionExampleScenario.node[56].veinsmobility  acceleration  ETV
vector 27846  IntersectionExampleScenario.node[56].veinsmobility  co2emission  ETV
vector 27849  IntersectionExampleScenario.node[57].veinsmobility  posx  ETV
vector 27850  IntersectionExampleScenario.node[57].veinsmobility  posy  ETV
vector 27851  IntersectionExampleScenario.node[57].veinsmobility  speed  ETV
vector 27852  IntersectionExampleScenario.node[57].veinsmobility  acceleration  ETV
vector 27853  IntersectionExampleScenario.node[57].veinsmobility  co2emission  ETV
27706	1156090 6303 8066 13012 124.5 174.25 200 0.973 12.353032912318 607.02585483639 3430.415148126
27705	1162393 5968 8066 13012 124.5 174.25 200 -8.2791528701782 4 42.585195541382 531.00496081787
27704	1168361 6103 8037 13012 124.25 174.25 201 0 16.625 2207.6181895733 33132.810720347
27703	1174464 6951 8008 13012 124 174.25 202 184.17810058594 731.97920227051 91478.799987793 45377844.373078
27702	1181415 6992 8008 13012 124 174.25 202 486.85000610352 486.85000610352 98343.70123291 47878631.545484
vector 27856  IntersectionExampleScenario.node[58].veinsmobility  posx  ETV
vector 27857  IntersectionExampleScenario.node[58].veinsmobility  posy  ETV
vector 27858  IntersectionExampleScenario.node[58].veinsmobility  speed  ETV
vector 27859  IntersectionExampleScenario.node[58].veinsmobility  acceleration  ETV
vector 27860  IntersectionExampleScenario.node[58].veinsmobility  co2emission  ETV
27727	1188808 6014 8744 13312 130.25 177 188 0.973 11.648172402475 542.52630290686 2869.1225173826
27726	1194822 6108 8744 13312 130.25 177 188 -2.594310760498 2.5 38.001859664917 315.3805754305
27725	1200930 6244 8715 13312 130 177 189 1.8810814619064 15.64999961853 2180.4737905264 29039.036843668
27724	1207174 6564 8686 13312 129.75 177 190 184.17810058594 483.14999389648 76944.736175537 32972524.127336
27723	1213738 6586 8686 13312 129.75 177 190 486.85000610352 731.92903137207 100649.41911316 54295458.905744
vector 27863  IntersectionExampleScenario.node[59].veinsmobility  posx  ETV
vector 27864  IntersectionExampleScenario.node[59].veinsmobility  posy  ETV
vector 27865  IntersectionExampleScenario.node[59].veinsmobility  speed  ETV
vector 27866  IntersectionExampleScenario.node[59].veinsmobility  acceleration  ETV
vector 27867  IntersectionExampleScenario.node[59].veinsmobility  co2emission  ETV
27748	1220725 5211 9652 13444 139.5 178.25 156 0.973 12.099024792222 521.29055425329 2927.0853246266
27747	1225936 5335 9652 13444 139.5 178.25 156 -3.2763366699219 2.5 40.630689620972 280.0171776086
27746	1231271 5420 9627 13444 139.25 178.25 157 5.6500000953674 16.27499961853 2203.1454071999 32187.176639638
27745	1236691 5491 9602 13444 139 178.25 158 483.14999389648 785.82187652588 90208.213783264 53267166.671471
27744	1242182 5501 9602 13444 139 178.25 158 483.14999389648 732.01795959473 84515.494613647 46135837.565821
vector 27870  IntersectionExampleScenario.node[60].veinsmobility  posx  ETV
vector 27871  IntersectionExampleScenario.node[60].veinsmobility  posy  ETV
27741	1247837 5515 9484 13544 137.75 179.25 167 0.973 11.200708441096 521.55234600659 2904.0661113457
27740	1253352 5110 9484 13544 137.75 179.25 167 -3.8215675354004 2.5 36.813589096069 268.19235127027
27739	1258462 5640 9459 13544 137.5 179.25 168 5.6500000953674 15.02499961853 2221.942193985 30254.781094408
27738	1264102 5854 9434 13544 137.25 179.25 169 184.17810058594 734.97418212891 75616.079589844 38111668.939992
27737	1269956 5892 9434 13544 137.25 179.25 169 486.85000610352 486.85000610352 82277.651031494 40056874.906866
vector 27872  IntersectionExampleScenario.node[60].veinsmobility  speed  ETV
vector 27873  IntersectionExampleScenario.node[60].veinsmobility  acceleration  ETV
vector 27874  IntersectionExampleScenario.node[60].veinsmobility  co2emission  ETV
vector 27877  IntersectionExampleScenario.node[61].veinsmobility  posx  ETV
vector 27878  IntersectionExampleScenario.node[61].veinsmobility  posy  ETV
vector 27879  IntersectionExampleScenario.node[61].veinsmobility  speed  ETV
vector 27880  IntersectionExampleScenario.node[61].veinsmobility  acceleration  ETV
vector 27881  IntersectionExampleScenario.node[61].veinsmobility  co2emission  ETV
27762	1276496 5215 10358 14081 147.25 185 152 0.973 11.648172402475 476.96443762153 2429.6868122431
27761	1281711 5147 10358 14081 147.25 185 152 -3.0979499816895 2.5 39.529638290405 186.12429108273
27760	1286858 5129 10337 14081 147 185 153 5.6500000953674 15.694416999817 2215.7493925095 32784.430999707
27759	1291987 5360 10318 14081 146.75 185 154 184.17810058594 732.88636779785 68999.451782227 34993823.606598
27758	1297347 5389 10318 14081 146.75 185 154 486.85000610352 486.85000610352 74974.900939941 36501530.980221
27776	1302736 4961 10716 14334 151.5 187.75 146 0.96997852711604 12.553400930962 500.07528890332 3042.5637318576
27775	1307697 4684 10716 14334 151.5 187.75 146 -3.3901748657227 2.5 42.585195541382 233.38480792026
27774	1312381 4889 10693 14334 151.25 187.75 147 5.6500000953674 16.89999961853 2210.9946155548 34146.538812555
27773	1317270 5159 10672 14334 151 187.75 148 238.52563476562 785.82187652588 77508.962394714 44501060.880312
27772	1322429 5180 10672 14334 151 187.75 148 483.14999389648 483.14999389648 71506.19909668 34548219.657121
27734	1327609 6739 9459 14604 137.5 190.75 214 0.973 12.099024792222 604.6187978747 3262.0802860905
27733	1334348 6266 9459 14604 137.5 190.75 214 -20.639671325684 4 40.038900375366 882.0122709109
27732	1340614 6457 9434 14604 137.25 190.75 215 0 16.27499961853 2206.6460466385 32406.068763918
27731	1347071 7535 9411 14604 137 190.75 216 483.14999389648 483.14999389648 104360.39868164 50421725.986069
27730	1354606 7509 9411 14604 137 190.75 216 184.17810058594 731.70051574707 98178.380340576 48674737.995523
27755	1362115 6331 9924 14623 142.25 191 196 0.973 11.810082123732 575.76749147058 3052.0742050216
27754	1368446 5863 9924 14623 142.25 191 196 -7.2641291618347 4 39.699392318726 483.2908312258
27753	1374309 6131 9899 14623 142 191 197 0 15.875 2180.8750771284 31208.168482518
27752	1380440 6854 9874 14623 141.75 191 198 486.85000610352 733.87629699707 104459.16201782 56104306.246984
27751	1387294 6918 9874 14623 141.75 191 198 486.63604736328 785.82187652588 110535.53025055 63602438.843591
vector 27884  IntersectionExampleScenario.node[62].veinsmobility  posx  ETV
vector 27885  IntersectionExampleScenario.node[62].veinsmobility  posy  ETV
vector 27886  IntersectionExampleScenario.node[62].veinsmobility  speed  ETV
vector 27887  IntersectionExampleScenario.node[62].veinsmobility  acceleration  ETV
vector 27888  IntersectionExampleScenario.node[62].veinsmobility  co2emission  ETV
27769	1394613 5891 10379 14741 147.5 192.5 181 0.973 11.54047740176 527.87841642585 2741.4471548462
27768	1400504 5938 10379 14741 147.5 192.5 181 -2.7555618286133 2.5000009536743 37.15309715271 301.31325243535
27767	1406442 6193 10358 14741 147.25 192.5 182 2.270872592926 15.5 2211.8612685204 29887.239798829
27766	1412635 6404 10337 14741 147 192.5 183 486.85000610352 486.85000610352 89093.551116943 43375195.905068
27765	1419039 6390 10337 14741 147 192.5 183 237.84704589844 785.82187652588 95411.664512634 53926321.26405
vector 27891  IntersectionExampleScenario.node[63].veinsmobility  posx  ETV
vector 27892  IntersectionExampleScenario.node[63].veinsmobility  posy  ETV
vector 27893  IntersectionExampleScenario.node[63].veinsmobility  speed  ETV
27790	1425661 5544 10899 14902 153.5 194.5 165 0.973 11.200708441096 504.20961053865 2670.0340846047
27789	1431205 5201 10899 14902 153.5 194.5 165 -2.5351409912109 2.5 36.813589096069 233.9562901815
27788	1436406 5636 10876 14902 153.25 194.5 166 5.6500000953674 15.02499961853 2219.1006889343 30476.624415093
27787	1442042 5844 10853 14902 153 194.5 167 483.14999389648 483.14999389648 80686.048980713 38983464.072563
27786	1447886 5815 10853 14902 153 194.5 167 184.17810058594 734.19885253906 74885.867950439 37826388.08141
vector 27894  IntersectionExampleScenario.node[63].veinsmobility  acceleration  ETV
vector 27895  IntersectionExampleScenario.node[63].veinsmobility  co2emission  ETV
vector 27898  IntersectionExampleScenario.node[64].veinsmobility  posx  ETV
vector 27899  IntersectionExampleScenario.node[64].veinsmobility  posy  ETV
27783	1454024 5928 10739 15040 151.75 196.25 179 0.973 11.36141391502 568.25672820538 3172.9794288174
27782	1459952 5781 10739 15040 151.75 196.25 179 -3.4655380249023 2.5 37.15309715271 385.50407769657
27781	1465733 5981 10716 15040 151.5 196.25 180 5.6479907035828 15.25 2204.9380807877 28998.957075407
27780	1471714 6329 10693 15040 151.25 196.25 181 486.85000610352 734.37474060059 96545.564331055 52491386.197222
27779	1478043 6313 10693 15040 151.25 196.25 181 486.75286865234 790.18281555176 103547.71346283 61080830.37421
vector 27900  IntersectionExampleScenario.node[64].veinsmobility  speed  ETV
vector 27901  IntersectionExampleScenario.node[64].veinsmobility  acceleration  ETV
vector 27902  IntersectionExampleScenario.node[64].veinsmobility  co2emission  ETV
27797	1484603 5403 11156 15103 156.25 197 164 0.973 11.54047740176 497.5130885559 2713.167356153
27796	1490006 5434 11156 15103 156.25 197 164 -3.0752868652344 2.5 38.341367721558 213.85770218002
27795	1495440 5540 11131 15103 156 197 165 5.6500000953674 15.5 2239.2623081207 31231.788802525
27794	1500980 5809 11106 15103 155.75 197 166 486.85000610352 486.85000610352 80817.101013184 39345806.121537
27793	1506789 5795 11106 15103 155.75 197 166 235.71844482422 790.48652648926 87111.514465332 49994919.046474
vector 27905  IntersectionExampleScenario.node[65].veinsmobility  posx  ETV
vector 27906  IntersectionExampleScenario.node[65].veinsmobility  posy  ETV
vector 27907  IntersectionExampleScenario.node[65].veinsmobility  speed  ETV
27811	1512816 5321 11585 15285 160.25 199.25 157 0.973 11.450879080643 495.84165881326 2673.1941869785
27810	1518137 5077 11585 15285 160.25 199.25 157 -3.336856842041 2.5 38.680875778198 235.13607437731
27809	1523214 5240 11558 15285 160 199.25 158 5.6500000953674 15.721753120422 2210.9381923676 31891.505802147
27808	1528454 5559 11531 15285 159.75 199.25 159 483.14999389648 733.83268737793 85234.296356201 46650224.043012
27807	1534013 5533 11531 15285 159.75 199.25 159 184.17810058594 486.85000610352 63316.110321045 26989605.202338
vector 27908  IntersectionExampleScenario.node[65].veinsmobility  acceleration  ETV
vector 27909  IntersectionExampleScenario.node[65].veinsmobility  co2emission  ETV
vector 27912  IntersectionExampleScenario.node[66].veinsmobility  posx  ETV
vector 27913  IntersectionExampleScenario.node[66].veinsmobility  posy  ETV
vector 27914  IntersectionExampleScenario.node[66].veinsmobility  speed  ETV
vector 27915  IntersectionExampleScenario.node[66].veinsmobility  acceleration  ETV
vector 27916  IntersectionExampleScenario.node[66].veinsmobility  co2emission  ETV
27804	1540116 6379 11210 15864 156.75 206 198 0.973 11.90022389248 579.82603481278 3096.5796539734
27803	1546495 5977 11210 15864 156.75 206 198 -8.013355255127 4 39.529638290405 494.85818162182
27802	1552472 6223 11183 15864 156.5 206 199 0 16 2214.6716985703 31920.742883582
27801	1558695 6986 11156 15864 156.25 206 200 235.99810791016 785.82187652588 103290.91510773 57464921.606894
27800	1565681 7000 11156 15864 156.25 206 200 483.14999389648 483.14999389648 96629.998779297 46686783.320434
27818	1572681 6126 11640 15921 160.75 206.75 185 0.973 11.200708441096 537.69344376069 2656.4896294014
27817	1578807 5686 11640 15921 160.75 206.75 185 -8.817081451416 4 36.134572982788 469.56263670059
27816	1584493 6032 11613 15921 160.5 206.75 186 0 15.02499961853 2197.2257316113 30078.361975184
27815	1590525 6521 11585 15921 160.25 206.75 187 184.17810058594 486.85000610352 76175.91027832 32944850.373941
27814	1597046 6544 11585 15921 160.25 206.75 187 237.55419921875 486.85000610352 82384.021728516 37333086.484535
vector 27919  IntersectionExampleScenario.node[67].veinsmobility  posx  ETV
vector 27920  IntersectionExampleScenario.node[67].veinsmobility  posy  ETV
vector 27921  IntersectionExampleScenario.node[67].veinsmobility  speed  ETV
vector 27922  IntersectionExampleScenario.node[67].veinsmobility  acceleration  ETV
vector 27923  IntersectionExampleScenario.node[67].veinsmobility  co2emission  ETV
27825	1603991 5503 12387 16137 168.5 209.5 165 0.973 11.648172402475 529.22922727496 2902.731759457
27824	1609494 5274 12387 16137 168.5 209.5 165 -3.3610153198242 2.5 39.190130233765 275.81332486702
27823	1614768 5531 12362 16137 168.25 209.5 166 5.6500000953674 15.64999961853 2215.4716844559 30880.380409768
27822	1620299 5813 12337 16137 168 209.5 167 184.17810058594 486.85000610352 66822.720947266 28520747.229846
27821	1626112 5839 12337 16137 168 209.5 167 235.18231201172 486.85000610352 72879.41696167 32789980.810497
27839	1631951 5437 12615 16227 170.75 210.75 161 0.973 11.990504229548 543.51502459904 3186.8175790695
27838	1637388 5278 12615 16227 170.75 210.75 161 -4.5 2.5 40.038900375366 313.19929228604
27837	1642666 5428 12588 16227 170.5 210.75 162 5.6500000953674 16.125 2293.0511693954 33267.731804644
27836	1648094 5679 12561 16227 170.25 210.75 163 167.29217529297 734.85948181152 71647.211090088 35969931.008719
27835	1653773 5707 12561 16227 170.25 210.75 163 486.85000610352 486.85000610352 79356.550994873 38634737.336208
vector 27926  IntersectionExampleScenario.node[68].veinsmobility  posx  ETV
vector 27927  IntersectionExampleScenario.node[68].veinsmobility  posy  ETV
vector 27928  IntersectionExampleScenario.node[68].veinsmobility  speed  ETV
vector 27929  IntersectionExampleScenario.node[68].veinsmobility  acceleration  ETV
vector 27930  IntersectionExampleScenario.node[68].veinsmobility  co2emission  ETV
27860	1659881 5244 13127 16411 175.25 213.5 154 0.973 11.990504229548 482.55813755886 2621.7838225111
27859	1665125 5123 13127 16411 175.25 213.5 154 -4.1442718505859 2.5 39.869146347046 207.10540226475
27858	1670248 5150 13098 16411 175 213.5 155 5.6500000953674 16.125 2257.3056106567 33598.800481061
27857	1675398 5434 13069 16411 174.75 213.5 156 173.29138183594 732.24111938477 68969.9243927 34780615.304683
27856	1680832 5460 13069 16411 174.75 213.5 156 486.85000610352 486.85000610352 75948.600952148 36975576.837107
vector 27933  IntersectionExampleScenario.node[69].veinsmobility  posx  ETV
vector 27934  IntersectionExampleScenario.node[69].veinsmobility  posy  ETV
vector 27935  IntersectionExampleScenario.node[69].veinsmobility  speed  ETV
vector 27936  IntersectionExampleScenario.node[69].veinsmobility  acceleration  ETV
vector 27937  IntersectionExampleScenario.node[69].veinsmobility  co2emission  ETV
vector 27940  IntersectionExampleScenario.node[70].veinsmobility  posx  ETV
vector 27941  IntersectionExampleScenario.node[70].veinsmobility  posy  ETV
vector 27942  IntersectionExampleScenario.node[70].veinsmobility  speed  ETV
vector 27943  IntersectionExampleScenario.node[70].veinsmobility  acceleration  ETV
vector 27944  IntersectionExampleScenario.node[70].veinsmobility  co2emission  ETV
27832	1687094 6696 12536 17043 170 222.25 210 0.973 11.648172402475 597.1493712215 3152.6841675426
27831	1693790 6103 12536 17043 170 222.25 210 -9.2622880935669 4 38.171613693237 556.99764681433
27830	1699893 6449 12511 17043 169.75 222.25 211 0 15.64999961853 2173.553535223 30535.454706011
27829	1706342 7345 12486 17043 169.5 222.25 212 237.46997070312 483.14999389648 94259.012298584 42928094.505176
27828	1713687 7392 12486 17043 169.5 222.25 212 184.17810058594 483.36395263672 87977.324951172 38461181.221622
27867	1721079 5986 13391 17058 177.75 222.5 180 0.973 11.36141391502 541.05676604097 2763.6690959632
27866	1727065 5480 13391 17058 177.75 222.5 180 -7.3439340591431 4 37.32285118103 466.2801642023
27865	1732545 5861 13364 17058 177.5 222.5 181 0 15.25 2179.0751368999 30203.864518701
27864	1738406 6307 13337 17058 177.25 222.5 182 486.85000610352 733.68672180176 96957.52532959 52640098.524534
27863	1744713 6360 13337 17058 177.25 222.5 182 486.63604736328 785.82187652588 102837.94322968 59954665.525069
vector 27947  IntersectionExampleScenario.node[71].veinsmobility  posx  ETV
vector 27948  IntersectionExampleScenario.node[71].veinsmobility  posy  ETV
vector 27949  IntersectionExampleScenario.node[71].veinsmobility  speed  ETV
27846	1751305 7018 12781 17160 172.25 224.25 209 0.973 11.200708441096 576.66550521937 2649.6473495327
27845	1758323 6683 12781 17160 172.25 224.25 209 -4.5 2.5000004768372 37.492597579956 417.21747100459
27844	1765006 7296 12752 17160 172 224.25 210 0 15.064932823181 2274.3811544552 31278.562807948
27843	1772302 7379 12723 17160 171.75 224.25 211 483.14999389648 733.63236999512 110502.39805603 58951650.059901
27842	1779681 7353 12723 17160 171.75 224.25 211 167.29217529297 486.8688659668 85881.601348877 37198495.057512
vector 27950  IntersectionExampleScenario.node[71].veinsmobility  acceleration  ETV
vector 27951  IntersectionExampleScenario.node[71].veinsmobility  co2emission  ETV
vector 27954  IntersectionExampleScenario.node[72].veinsmobility  posx  ETV
vector 27955  IntersectionExampleScenario.node[72].veinsmobility  posy  ETV
vector 27956  IntersectionExampleScenario.node[72].veinsmobility  speed  ETV
vector 27957  IntersectionExampleScenario.node[72].veinsmobility  acceleration  ETV
vector 27958  IntersectionExampleScenario.node[72].veinsmobility  co2emission  ETV
27874	1787604 6286 13595 17309 179.75 226.5 188 0.973 11.36141391502 580.24547352974 2914.936164202
27873	1793890 5759 13595 17309 179.75 226.5 188 -22.072593688965 4 38.850629806519 969.02023329672
27872	1799649 6252 13570 17309 179.5 226.5 189 0 15.389986038208 2257.6734622717 31491.909537888
27871	1805901 6643 13544 17309 179.25 226.5 190 486.85000610352 733.44476318359 100642.07106018 54294687.155656
27870	1812544 6634 13544 17309 179.25 226.5 190 486.77734375 803.92188262939 108334.78957367 63908086.635296
vector 27961  IntersectionExampleScenario.node[73].veinsmobility  posx  ETV
vector 27962  IntersectionExampleScenario.node[73].veinsmobility  posy  ETV
vector 27963  IntersectionExampleScenario.node[73].veinsmobility  speed  ETV
vector 27964  IntersectionExampleScenario.node[73].veinsmobility  acceleration  ETV
vector 27965  IntersectionExampleScenario.node[73].veinsmobility  co2emission  ETV
27853	1819579 7198 12925 17433 173.5 228.25 220 0.973 10.756497587458 614.34481931433 2879.3175801357
27852	1826777 7297 12925 17433 173.5 228.25 220 -4.5 2.5 38.511121749878 466.61919625495
27851	1834074 7702 12896 17433 173.25 228.25 221 0 15.384128570557 2323.1061236858 30721.008720037
27850	1841776 7759 12867 17433 173 228.25 222 483.14999389648 733.34242248535 115714.93733215 61393846.294458
27849	1849535 7745 12867 17433 173 228.25 222 154.46173095703 486.95831298828 89353.381072998 38411531.104709
27888	1857280 5288 14741 17654 192.5 231.5 157 0.973 11.868855439652 524.71968583351 3097.7261221756
27887	1862568 5102 14741 17654 192.5 231.5 157 -3.3762798309326 2.5 39.699392318726 303.57501032593
27886	1867670 5206 14720 17654 192.25 231.5 158 5.6500000953674 15.956522941589 2175.3941245079 31419.829621678
27885	1872876 5544 14699 17654 192 231.5 159 238.99963378906 483.14999389648 68934.540100098 30773360.278799
27884	1878420 5536 14699 17654 192 231.5 159 184.17810058594 483.14999389648 63147.767608643 26803248.509288
vector 27968  IntersectionExampleScenario.node[74].veinsmobility  posx  ETV
vector 27969  IntersectionExampleScenario.node[74].veinsmobility  posy  ETV
vector 27970  IntersectionExampleScenario.node[74].veinsmobility  speed  ETV
vector 27971  IntersectionExampleScenario.node[74].veinsmobility  acceleration  ETV
vector 27972  IntersectionExampleScenario.node[74].veinsmobility  co2emission  ETV
vector 27975  IntersectionExampleScenario.node[75].veinsmobility  posx  ETV
vector 27976  IntersectionExampleScenario.node[75].veinsmobility  posy  ETV
vector 27982  IntersectionExampleScenario.node[76].veinsmobility  posx  ETV
vector 27983  IntersectionExampleScenario.node[76].veinsmobility  posy  ETV
vector 27977  IntersectionExampleScenario.node[75].veinsmobility  speed  ETV
vector 27984  IntersectionExampleScenario.node[76].veinsmobility  speed  ETV
vector 27978  IntersectionExampleScenario.node[75].veinsmobility  acceleration  ETV
vector 27979  IntersectionExampleScenario.node[75].veinsmobility  co2emission  ETV
vector 27985  IntersectionExampleScenario.node[76].veinsmobility  acceleration  ETV
vector 27986  IntersectionExampleScenario.node[76].veinsmobility  co2emission  ETV
27895	1885159 5714 14923 18071 194.75 237.25 171 0.97223939240464 11.810082123732 544.49075159457 3001.7900673661
27894	1890873 5437 14923 18071 194.75 237.25 171 -7.1630640029907 4 38.680875778198 476.87792498683
27893	1896310 5628 14902 18071 194.5 237.25 172 0 15.875 2184.2047655582 30861.615730234
27892	1901938 6047 14881 18071 194.25 237.25 173 486.63604736328 785.82187652588 98176.82938385 57511150.083845
27891	1907985 5986 14881 18071 194.25 237.25 173 235.25335693359 483.14999389648 75344.898284912 33779771.694587
27881	1913971 6789 14058 18089 184.75 237.5 212 0.973 11.36141391502 573.90695336068 2800.620552378
27880	1920760 6017 14058 18089 184.75 237.5 212 -6.9984560012817 4 37.492597579956 464.16787738279
27879	1926777 6531 14035 18089 184.5 237.5 213 0 15.25 2181.771545887 30316.950911517
27878	1933308 7467 14012 18089 184.25 237.5 214 184.17810058594 483.36395263672 88815.770355225 38827770.74576
27877	1940775 7426 14012 18089 184.25 237.5 214 486.85000610352 734.21499633789 112550.21276855 60242968.13464
27909	1948201 5168 15306 18174 199.5 238.75 158 0.93072278424211 12.44402232946 564.01859189942 3695.86745989
27908	1953369 4981 15306 18174 199.5 238.75 158 -3.1667709350586 2.5 42.075933456421 329.69257763485
27907	1958350 5300 15285 18174 199.25 238.75 159 5.6500000953674 16.75 2220.894320488 32365.820458495
27906	1963650 5568 15264 18174 199 238.75 160 184.17810058594 733.66325378418 71285.483108521 35751243.573363
27905	1969218 5600 15264 18174 199 238.75 160 486.85000610352 486.85000610352 77896.000976562 37923668.550879
vector 27989  IntersectionExampleScenario.node[77].veinsmobility  posx  ETV
vector 27990  IntersectionExampleScenario.node[77].veinsmobility  posy  ETV
vector 27991  IntersectionExampleScenario.node[77].veinsmobility  speed  ETV
vector 27992  IntersectionExampleScenario.node[77].veinsmobility  acceleration  ETV
vector 27993  IntersectionExampleScenario.node[77].veinsmobility  co2emission  ETV
27916	1975219 5425 15709 18527 204.25 244 160 0.973 11.648172402475 501.77898193398 2723.728558652
27915	1980644 5117 15709 18527 204.25 244 160 -4.1972732543945 2.5 37.662351608276 286.1936465067
27914	1985761 5310 15686 18527 204 244 161 5.6500000953674 15.64999961853 2175.8625545502 30689.563772774
27913	1991071 5658 15663 18527 203.75 244 162 486.85000610352 785.82187652588 92768.925086975 54870188.894494
27912	1996729 5664 15663 18527 203.75 244 162 238.67572021484 483.14999389648 70115.64630127 31261411.3044
vector 27996  IntersectionExampleScenario.node[78].veinsmobility  posx  ETV
vector 27997  IntersectionExampleScenario.node[78].veinsmobility  posy  ETV
vector 27998  IntersectionExampleScenario.node[78].veinsmobility  speed  ETV
vector 27999  IntersectionExampleScenario.node[78].veinsmobility  acceleration  ETV
vector 28000  IntersectionExampleScenario.node[78].veinsmobility  co2emission  ETV
vector 28003  IntersectionExampleScenario.node[79].veinsmobility  posx  ETV
vector 28004  IntersectionExampleScenario.node[79].veinsmobility  posy  ETV
vector 28005  IntersectionExampleScenario.node[79].veinsmobility  speed  ETV
27923	2003026 5632 15982 18843 207.5 248.5 165 0.973 11.200708441096 482.41720802397 2390.9275139336
27922	2008658 5297 15982 18843 207.5 248.5 165 -3.7943229675293 2.5 35.795072555542 223.49003728244
27921	2013955 5534 15961 18843 207.25 248.5 166 5.6500000953674 15.02499961853 2253.7196998596 31345.288705475
27920	2019489 5830 15940 18843 207 248.5 167 482.93371582031 797.07032012939 96208.87638092 57415602.817267
27919	2025319 5821 15940 18843 207 248.5 167 483.14999389648 733.72640991211 89478.907928467 48949581.471705
vector 28006  IntersectionExampleScenario.node[79].veinsmobility  acceleration  ETV
vector 28007  IntersectionExampleScenario.node[79].veinsmobility  co2emission  ETV
vector 28010  IntersectionExampleScenario.node[80].veinsmobility  posx  ETV
vector 28011  IntersectionExampleScenario.node[80].veinsmobility  posy  ETV
vector 28012  IntersectionExampleScenario.node[80].veinsmobility  speed  ETV
vector 28013  IntersectionExampleScenario.node[80].veinsmobility  acceleration  ETV
vector 28014  IntersectionExampleScenario.node[80].veinsmobility  co2emission  ETV
27902	2031710 7091 15082 19203 196.75 253.25 227 0.973 11.648172402475 603.02264375931 3152.8000869967
27901	2038801 6680 15082 19203 196.75 253.25 227 -35.801071166992 4 37.662351608276 1631.4947069496
27900	2045481 6788 15061 19203 196.5 253.25 228 0 15.64999961853 2211.7233409882 31445.146913503
27899	2052269 8008 15040 19203 196.25 253.25 229 483.14999389648 735.35848999023 119277.65699768 63254621.887095
27898	2060277 7993 15040 19203 196.25 253.25 229 179.81719970703 486.85000610352 95856.711303711 42241771.659015
27937	2068270 5381 16466 19220 214.25 253.5 158 0.973 11.648172402475 497.98580486143 2695.247101673
27936	2073651 4955 16466 19220 214.25 253.5 158 -3.0159950256348 2.5 38.341367721558 245.17790770295
27935	2078606 5279 16447 19220 214 253.5 159 5.6500000953674 15.64999961853 2202.4930143356 31462.214408123
27934	2083885 5596 16428 19220 213.75 253.5 160 238.10064697266 486.85000610352 69570.54486084 31196741.996691
27933	2089481 5594 16428 19220 213.75 253.5 160 483.12966918945 785.82187652588 91467.765281677 54065180.358346
27930	2095075 5626 16360 19341 212.75 255.5 172 0.973 12.099024792222 565.25532184214 3224.2509418374
27929	2100701 5574 16360 19341 212.75 255.5 172 -2.8309574127197 2.5 41.396924972534 339.96142148507
27928	2106275 5734 16343 19341 212.5 255.5 173 4.7545623779297 16.27499961853 2179.009868145 30126.213601609
27927	2112009 6085 16326 19341 212.25 255.5 174 238.7705078125 483.14999389648 76340.025787354 34399864.449818
27926	2118094 6058 16326 19341 212.25 255.5 174 184.17810058594 483.25570678711 69735.282623291 29678047.850763
vector 28017  IntersectionExampleScenario.node[81].veinsmobility  posx  ETV
vector 28018  IntersectionExampleScenario.node[81].veinsmobility  posy  ETV
vector 28019  IntersectionExampleScenario.node[81].veinsmobility  speed  ETV
vector 28020  IntersectionExampleScenario.node[81].veinsmobility  acceleration  ETV
vector 28021  IntersectionExampleScenario.node[81].veinsmobility  co2emission  ETV
vector 28024  IntersectionExampleScenario.node[82].veinsmobility  posx  ETV
vector 28025  IntersectionExampleScenario.node[82].veinsmobility  posy  ETV
vector 28026  IntersectionExampleScenario.node[82].veinsmobility  speed  ETV
vector 28027  IntersectionExampleScenario.node[82].veinsmobility  acceleration  ETV
vector 28028  IntersectionExampleScenario.node[82].veinsmobility  co2emission  ETV
vector 28031  IntersectionExampleScenario.node[83].veinsmobility  posx  ETV
vector 28032  IntersectionExampleScenario.node[83].veinsmobility  posy  ETV
vector 28033  IntersectionExampleScenario.node[83].veinsmobility  speed  ETV
vector 28034  IntersectionExampleScenario.node[83].veinsmobility  acceleration  ETV
vector 28035  IntersectionExampleScenario.node[83].veinsmobility  co2emission  ETV
27965	2125355 5356 17364 19966 227.25 266.5 158 0.973 11.810082123732 513.43619907667 2875.6901887968
27964	2130711 4966 17364 19966 227.25 266.5 158 -3.2696132659912 2.5 39.529638290405 284.0743005479
27963	2135677 5233 17345 19966 227 266.5 159 5.6500000953674 15.875 2188.440217495 31584.250523693
27962	2140910 5591 17326 19966 226.75 266.5 160 235.67498779297 483.14999389648 69186.786682129 30839536.155566
27961	2146501 5581 17326 19966 226.75 266.5 160 184.17810058594 483.14999389648 63625.506011963 27033165.130064
vector 28038  IntersectionExampleScenario.node[84].veinsmobility  posx  ETV
vector 28039  IntersectionExampleScenario.node[84].veinsmobility  posy  ETV
vector 28040  IntersectionExampleScenario.node[84].veinsmobility  speed  ETV
vector 28041  IntersectionExampleScenario.node[84].veinsmobility  acceleration  ETV
vector 28042  IntersectionExampleScenario.node[84].veinsmobility  co2emission  ETV
27944	2152483 6839 16632 20169 216.5 269.25 212 0.973 10.916047529558 549.06857731314 2522.7686245932
27943	2159322 6217 16632 20169 216.5 269.25 212 -7.815390586853 4 34.267293930054 448.84469127285
27942	2165539 6628 16613 20169 216.25 269.25 213 0 14.625 2179.6677112579 28929.234152605
27941	2172167 7464 16594 20169 216 269.25 214 184.17810058594 483.36395263672 88395.979431152 38507974.404384
27940	2179631 7425 16594 20169 216 269.25 214 486.85000610352 734.07568359375 112986.1190033 60740636.043824
27951	2187056 6046 17175 20169 224.5 269.25 180 0.973 11.200708441096 533.24467658404 2609.6450321491
27950	2193102 5970 17175 20169 224.5 269.25 180 -7.1220898628235 4 35.964826583862 452.49980944581
27949	2199072 6120 17160 20169 224.25 269.25 181 0 15.02499961853 2210.0741659403 30162.682047065
27948	2205192 6350 17145 20169 224 269.25 182 237.12976074219 785.82187652588 94260.309776306 53082531.010502
27947	2211542 6369 17145 20169 224 269.25 182 483.14999389648 483.14999389648 87933.29888916 42484972.821595
vector 28045  IntersectionExampleScenario.node[85].veinsmobility  posx  ETV
vector 28046  IntersectionExampleScenario.node[85].veinsmobility  posy  ETV
27958	2218065 5783 17224 20186 225.25 269.5 178 0.973 11.648172402475 527.67710795222 2844.7658642533
27957	2223848 5857 17224 20186 225.25 269.5 178 -2.3315238952637 2.5 38.171613693237 285.7181959715
27956	2229705 6059 17207 20186 225 269.5 179 3.2433440685272 15.64999961853 2211.0612440109 30020.475027779
27955	2235764 6267 17190 20186 224.75 269.5 180 184.17810058594 731.77526855469 80469.153076172 40095916.790751
27954	2242031 6300 17190 20186 224.75 269.5 180 486.85000610352 486.85000610352 87633.001098633 42664127.119739
vector 28052  IntersectionExampleScenario.node[86].veinsmobility  posx  ETV
vector 28053  IntersectionExampleScenario.node[86].veinsmobility  posy  ETV
vector 28047  IntersectionExampleScenario.node[85].veinsmobility  speed  ETV
vector 28048  IntersectionExampleScenario.node[85].veinsmobility  acceleration  ETV
vector 28049  IntersectionExampleScenario.node[85].veinsmobility  co2emission  ETV
vector 28054  IntersectionExampleScenario.node[86].veinsmobility  speed  ETV
vector 28055  IntersectionExampleScenario.node[86].veinsmobility  acceleration  ETV
vector 28056  IntersectionExampleScenario.node[86].veinsmobility  co2emission  ETV
vector 28059  IntersectionExampleScenario.node[87].veinsmobility  posx  ETV
vector 28060  IntersectionExampleScenario.node[87].veinsmobility  posy  ETV
vector 28061  IntersectionExampleScenario.node[87].veinsmobility  speed  ETV
vector 28066  IntersectionExampleScenario.node[88].veinsmobility  posx  ETV
vector 28067  IntersectionExampleScenario.node[88].veinsmobility  posy  ETV
vector 28073  IntersectionExampleScenario.node[89].veinsmobility  posx  ETV
vector 28074  IntersectionExampleScenario.node[89].veinsmobility  posy  ETV
vector 28062  IntersectionExampleScenario.node[87].veinsmobility  acceleration  ETV
vector 28063  IntersectionExampleScenario.node[87].veinsmobility  co2emission  ETV
vector 28068  IntersectionExampleScenario.node[88].veinsmobility  speed  ETV
vector 28075  IntersectionExampleScenario.node[89].veinsmobility  speed  ETV
vector 28069  IntersectionExampleScenario.node[88].veinsmobility  acceleration  ETV
vector 28070  IntersectionExampleScenario.node[88].veinsmobility  co2emission  ETV
vector 28076  IntersectionExampleScenario.node[89].veinsmobility  acceleration  ETV
vector 28077  IntersectionExampleScenario.node[89].veinsmobility  co2emission  ETV
27979	2250182 5201 17927 20495 235.5 273.25 152 0.973 11.648172402475 488.59910145486 2559.6360257603
27978	2255383 5035 17927 20495 235.5 273.25 152 -4.0636558532715 2.5 39.869146347046 207.06399212659
27977	2260418 5121 17906 20495 235.25 273.25 153 5.6500000953674 15.994376182556 2223.4092178345 33030.54006017
27976	2265539 5376 17885 20495 235 273.25 154 235.19958496094 785.82187652588 80250.597373962 45925077.372341
27975	2270915 5389 17885 20495 235 273.25 154 483.14999389648 483.14999389648 74405.099060059 35948823.156735
vector 28080  IntersectionExampleScenario.node[90].veinsmobility  posx  ETV
vector 28081  IntersectionExampleScenario.node[90].veinsmobility  posy  ETV
vector 28082  IntersectionExampleScenario.node[90].veinsmobility  speed  ETV
vector 28083  IntersectionExampleScenario.node[90].veinsmobility  acceleration  ETV
vector 28084  IntersectionExampleScenario.node[90].veinsmobility  co2emission  ETV
vector 28087  IntersectionExampleScenario.node[91].veinsmobility  posx  ETV
vector 28088  IntersectionExampleScenario.node[91].veinsmobility  posy  ETV
vector 28089  IntersectionExampleScenario.node[91].veinsmobility  speed  ETV
vector 28090  IntersectionExampleScenario.node[91].veinsmobility  acceleration  ETV
vector 28091  IntersectionExampleScenario.node[91].veinsmobility  co2emission  ETV
vector 28094  IntersectionExampleScenario.node[92].veinsmobility  posx  ETV
vector 28095  IntersectionExampleScenario.node[92].veinsmobility  posy  ETV
vector 28096  IntersectionExampleScenario.node[92].veinsmobility  speed  ETV
vector 28097  IntersectionExampleScenario.node[92].veinsmobility  acceleration  ETV
vector 28098  IntersectionExampleScenario.node[92].veinsmobility  co2emission  ETV
27993	2277507 5755 18306 21634 240.75 283.75 173 0.973 11.90022389248 557.39472426492 3081.2323026761
27992	2283262 5314 18306 21634 240.75 283.75 173 -6.9388580322266 4 39.869146347046 486.92859174969
27991	2288576 5687 18289 21634 240.5 283.75 174 0 16 2204.3578848839 31907.458465355
27990	2294263 6127 18272 21634 240.25 283.75 175 486.85000610352 486.85000610352 85198.751068115 41479012.477524
27989	2300390 6115 18272 21634 240.25 283.75 175 238.82672119141 785.82187652588 91025.849876404 51384914.225574
27972	2306505 6609 17749 21688 233 284.25 206 0.973 11.648172402475 582.00001239516 2987.8872591501
27971	2313114 6140 17749 21688 233 284.25 206 -8.9346218109131 4 38.850629806519 504.9961996497
27970	2319254 6419 17732 21688 232.75 284.25 207 0 15.64999961853 2218.3325181007 31709.348279155
27969	2325673 7280 17715 21688 232.5 284.25 208 483.14999389648 483.14999389648 100495.19873047 48554254.653252
27968	2332953 7248 17715 21688 232.5 284.25 208 184.17810058594 735.09378051758 94590.386505127 47191201.52693
vector 28101  IntersectionExampleScenario.node[93].veinsmobility  posx  ETV
vector 28102  IntersectionExampleScenario.node[93].veinsmobility  posy  ETV
vector 28103  IntersectionExampleScenario.node[93].veinsmobility  speed  ETV
vector 28104  IntersectionExampleScenario.node[93].veinsmobility  acceleration  ETV
vector 28105  IntersectionExampleScenario.node[93].veinsmobility  co2emission  ETV
vector 28108  IntersectionExampleScenario.node[94].veinsmobility  posx  ETV
vector 28109  IntersectionExampleScenario.node[94].veinsmobility  posy  ETV
vector 28110  IntersectionExampleScenario.node[94].veinsmobility  speed  ETV
28000	2340834 5249 18803 22030 248 287.5 159 0.973 12.26218747632 565.73298692373 3595.7106820775
27999	2346083 5142 18803 22030 248 287.5 159 -3.5171680450439 2.5 41.227170944214 367.93086404782
27998	2351225 5253 18784 22030 247.75 287.5 160 5.6500000953674 16.5 2176.4745850563 31242.37860531
[...]
vector 31175  IntersectionExampleScenario.node[532].veinsmobility  posy  ETV
vector 31181  IntersectionExampleScenario.node[533].veinsmobility  posx  ETV
vector 31182  IntersectionExampleScenario.node[533].veinsmobility  posy  ETV
vector 31176  IntersectionExampleScenario.node[532].veinsmobility  speed  ETV
vector 31177  IntersectionExampleScenario.node[532].veinsmobility  acceleration  ETV
vector 31178  IntersectionExampleScenario.node[532].veinsmobility  co2emission  ETV
vector 31183  IntersectionExampleScenario.node[533].veinsmobility  speed  ETV
vector 31184  IntersectionExampleScenario.node[533].veinsmobility  acceleration  ETV
vector 31185  IntersectionExampleScenario.node[533].veinsmobility  co2emission  ETV
vector 31188  IntersectionExampleScenario.node[534].veinsmobility  posx  ETV
vector 31189  IntersectionExampleScenario.node[534].veinsmobility  posy  ETV
vector 31190  IntersectionExampleScenario.node[534].veinsmobility  speed  ETV
vector 31191  IntersectionExampleScenario.node[534].veinsmobility  acceleration  ETV
vector 31192  IntersectionExampleScenario.node[534].veinsmobility  co2emission  ETV
vector 31195  IntersectionExampleScenario.node[535].veinsmobility  posx  ETV
vector 31196  IntersectionExampleScenario.node[535].veinsmobility  posy  ETV
vector 31197  IntersectionExampleScenario.node[535].veinsmobility  speed  ETV
vector 31198  IntersectionExampleScenario.node[535].veinsmobility  acceleration  ETV
vector 31199  IntersectionExampleScenario.node[535].veinsmobility  co2emission  ETV
31094	16187799 5588 127665 130837 1726.75 1765.5 156 0.973 11.90022389248 496.20941997836 2760.6512116538
31093	16193387 5337 127665 130837 1726.75 1765.5 156 -3.3035583496094 2.5 39.020376205444 241.78197005939
31092	16198724 5507 127652 130837 1726.5 1765.5 157 5.6500000953674 16 2211.5752487183 32122.11209787
31091	16204231 5820 127639 130837 1726.25 1765.5 158 184.17810058594 487.07305908203 62885.922790527 26795714.889781
31090	16210051 5838 127639 130837 1726.25 1765.5 158 235.90551757812 486.85000610352 68548.812988281 30696749.298597
31108	16215889 5723 127807 131113 1729.25 1768.5 158 0.973 11.648172402475 478.18635851688 2488.0522749564
31107	16221612 5417 127807 131113 1729.25 1768.5 158 -3.1499290466309 2.5 38.171613693237 191.97929833096
31106	16227029 5650 127788 131113 1729 1768.5 159 5.6500000953674 15.64999961853 2274.6487693787 33170.623385791
31105	16232679 5883 127771 131113 1728.75 1768.5 160 168.58435058594 732.04721069336 70470.225860596 35508002.094499
31104	16238562 5920 127771 131113 1728.75 1768.5 160 486.85000610352 486.85000610352 77896.000976562 37923668.550879
31101	16244482 5743 127788 131113 1729 1768.5 159 0.973 11.450879080643 484.85277543601 2508.3976827919
31100	16250225 5088 127788 131113 1729 1768.5 159 -3.1659851074219 2.5 37.492597579956 221.06147917436
31099	16255313 5635 127771 131113 1728.75 1768.5 160 5.6500000953674 15.375 2208.8621444702 31360.982179384
31098	16260948 5950 127756 131113 1728.5 1768.5 161 483.14999389648 785.82187652588 92056.787269592 54427339.067731
31097	16266898 5946 127756 131113 1728.5 1768.5 161 483.14999389648 733.46098327637 86326.65246582 47259216.116872
31115	16272844 5790 127826 131205 1729.5 1769.5 161 0.973 12.188321605594 537.17055111485 2872.6313303945
31114	16278634 5934 127826 131205 1729.5 1769.5 161 -4.5 2.5000038146973 42.992788314819 262.48660530494
31113	16284568 5930 127807 131205 1729.25 1769.5 162 5.6500000953674 16.398197174072 2301.093914032 33894.012441077
31112	16290498 6013 127788 131205 1729 1769.5 163 483.13806152344 809.56562805176 94692.625572205 57162054.235932
31111	16296511 6016 127788 131205 1729 1769.5 163 483.14999389648 732.61488342285 87073.131622314 47475766.291153
vector 31202  IntersectionExampleScenario.node[536].veinsmobility  posx  ETV
vector 31203  IntersectionExampleScenario.node[536].veinsmobility  posy  ETV
vector 31204  IntersectionExampleScenario.node[536].veinsmobility  speed  ETV
vector 31205  IntersectionExampleScenario.node[536].veinsmobility  acceleration  ETV
vector 31206  IntersectionExampleScenario.node[536].veinsmobility  co2emission  ETV
31080	16302933 7375 127170 131433 1718 1772.25 218 0.973 11.648172402475 594.33566470918 2983.9980569056
31079	16310308 6892 127170 131433 1718 1772.25 218 -7.3918190002441 4 38.511121749878 523.10424496391
31078	16317200 7093 127157 131433 1717.75 1772.25 219 0 15.64999961853 2227.1816964149 31742.407693685
31077	16324293 8135 127144 131433 1717.5 1772.25 220 236.75640869141 486.85000610352 98718.046112061 45374508.510635
31076	16332428 8131 127144 131433 1717.5 1772.25 220 483.14999389648 792.02188110352 121856.33661652 69610151.354433
vector 31209  IntersectionExampleScenario.node[537].veinsmobility  posx  ETV
vector 31210  IntersectionExampleScenario.node[537].veinsmobility  posy  ETV
vector 31211  IntersectionExampleScenario.node[537].veinsmobility  speed  ETV
vector 31212  IntersectionExampleScenario.node[537].veinsmobility  acceleration  ETV
vector 31213  IntersectionExampleScenario.node[537].veinsmobility  co2emission  ETV
31087	16340965 7837 127239 131641 1719.25 1774.75 223 0.973 10.952971962225 568.42847135117 2566.8337193947
31086	16348802 7674 127239 131641 1719.25 1774.75 223 -4.5 2.5000001117587 34.437047958374 400.68196241014
31085	16356476 8000 127224 131641 1719 1774.75 224 0 14.676989555359 2285.4320484325 30053.73479991
31084	16364476 8314 127209 131641 1718.75 1774.75 225 486.85000610352 734.5344543457 118346.70053101 63356808.225585
31083	16372790 8306 127209 131641 1718.75 1774.75 225 486.85000610352 810.19532012939 127239.94409943 74378679.774295
vector 31216  IntersectionExampleScenario.node[538].veinsmobility  posx  ETV
vector 31217  IntersectionExampleScenario.node[538].veinsmobility  posy  ETV
vector 31218  IntersectionExampleScenario.node[538].veinsmobility  speed  ETV
vector 31219  IntersectionExampleScenario.node[538].veinsmobility  acceleration  ETV
vector 31220  IntersectionExampleScenario.node[538].veinsmobility  co2emission  ETV
31129	16381502 5668 128456 131840 1737.25 1777.5 162 0.973 12.099024792222 566.40596895724 3470.4615496252
31128	16387170 5560 128456 131840 1737.25 1777.5 162 -3.1100254058838 2.5 40.038900375366 342.36355799883
31127	16392730 5699 128435 131840 1737 1777.5 163 5.6500000953674 16.27499961853 2189.2714180946 30888.625709838
31126	16398429 6060 128414 131840 1736.75 1777.5 164 486.85000610352 734.09043884277 87920.719177246 48058532.369282
31125	16404489 6051 128414 131840 1736.75 1777.5 164 486.76306152344 785.82187652588 93760.437141418 55332484.949647
31143	16410540 5577 129226 132432 1747 1785.75 156 0.973 12.099024792222 519.19324617343 3019.8414510198
31142	16416117 5450 129226 132432 1747 1785.75 156 -3.3895664215088 2.5 40.378400802612 297.01960825291
31141	16421567 5483 129205 132432 1746.75 1785.75 157 5.6500000953674 16.27499961853 2182.4869627953 31875.482899578
31140	16427050 5841 129184 132432 1746.5 1785.75 158 486.85000610352 732.78831481934 84843.890594482 46455350.297454
31139	16432891 5830 129184 132432 1746.5 1785.75 158 486.85000610352 785.82187652588 90459.40486908 53505845.112121
31136	16438721 6543 128708 132528 1740.25 1787.25 189 0.97223939240464 11.810082123732 562.00475159457 3018.8311893661
31135	16445264 6194 128708 132528 1740.25 1787.25 189 -7.1630640029907 4 38.680875778198 476.87792498683
31134	16451458 6385 128687 132528 1740 1787.25 190 0 15.875 2184.2047655582 30861.615730234
31133	16457843 7058 128665 132528 1739.75 1787.25 191 486.63604736328 785.82187652588 107148.02927399 61982396.054333
31132	16464901 6997 128665 132528 1739.75 1787.25 191 235.25335693359 483.14999389648 84041.598175049 37981582.193426
31122	16471898 7702 128039 132580 1732.25 1788.25 225 0.973 11.200708441096 595.92816758666 2732.1623253517
31121	16479600 6977 128039 132580 1732.25 1788.25 225 -21.745365142822 4 37.32285118103 868.05975592281
31120	16486577 7536 128018 132580 1732 1788.25 226 0 15.133727073669 2294.7654266357 32156.224332109
31119	16494113 8368 127997 132580 1731.75 1788.25 227 163.60626220703 733.50102233887 101792.66542053 50374731.456836
31118	16502481 8399 127997 132580 1731.75 1788.25 227 486.85000610352 486.85000610352 110514.9513855 53804204.756559
vector 31223  IntersectionExampleScenario.node[539].veinsmobility  posx  ETV
vector 31224  IntersectionExampleScenario.node[539].veinsmobility  posy  ETV
31171	16511036 5318 129814 132686 1753.5 1790.5 149 0.973 12.171234788004 537.90871097642 3315.8469286039
31170	16516354 5119 129814 132686 1753.5 1790.5 149 -3.1226196289062 2.5 42.415441513062 261.5576253536
31169	16521473 5317 129792 132686 1753.25 1790.5 150 5.6500000953674 16.374675750732 2219.0124998093 33673.438148394
31168	16526790 5551 129769 132686 1753 1790.5 151 184.17810058594 733.17034912109 67418.303466797 34065986.874309
31167	16532341 5586 129769 132686 1753 1790.5 151 486.85000610352 486.85000610352 73514.350921631 35790462.194892
vector 31225  IntersectionExampleScenario.node[539].veinsmobility  speed  ETV
vector 31226  IntersectionExampleScenario.node[539].veinsmobility  acceleration  ETV
vector 31227  IntersectionExampleScenario.node[539].veinsmobility  co2emission  ETV
31164	16538177 5766 129629 132750 1751.5 1791.75 162 0.973 11.450879080643 523.48528710913 3059.9482119929
31163	16543943 5547 129629 132750 1751.5 1791.75 162 -3.525032043457 2.5 36.813589096069 292.07023267108
31162	16549490 5741 129604 132750 1751.25 1791.75 163 5.6500000953674 15.375 2210.082233429 30787.685770416
31161	16555231 6056 129579 132750 1751 1791.75 164 482.93130493164 785.82187652588 93766.467170715 55409785.580005
31160	16561287 6052 129579 132750 1751 1791.75 164 483.14999389648 734.02442932129 87900.879959106 48105293.280117
vector 31230  IntersectionExampleScenario.node[540].veinsmobility  posx  ETV
vector 31231  IntersectionExampleScenario.node[540].veinsmobility  posy  ETV
vector 31232  IntersectionExampleScenario.node[540].veinsmobility  speed  ETV
vector 31233  IntersectionExampleScenario.node[540].veinsmobility  acceleration  ETV
vector 31234  IntersectionExampleScenario.node[540].veinsmobility  co2emission  ETV
vector 31237  IntersectionExampleScenario.node[541].veinsmobility  posx  ETV
vector 31238  IntersectionExampleScenario.node[541].veinsmobility  posy  ETV
vector 31239  IntersectionExampleScenario.node[541].veinsmobility  speed  ETV
vector 31240  IntersectionExampleScenario.node[541].veinsmobility  acceleration  ETV
vector 31241  IntersectionExampleScenario.node[541].veinsmobility  co2emission  ETV
vector 31244  IntersectionExampleScenario.node[542].veinsmobility  posx  ETV
vector 31245  IntersectionExampleScenario.node[542].veinsmobility  posy  ETV
vector 31246  IntersectionExampleScenario.node[542].veinsmobility  speed  ETV
vector 31247  IntersectionExampleScenario.node[542].veinsmobility  acceleration  ETV
vector 31248  IntersectionExampleScenario.node[542].veinsmobility  co2emission  ETV
vector 31251  IntersectionExampleScenario.node[543].veinsmobility  posx  ETV
vector 31252  IntersectionExampleScenario.node[543].veinsmobility  posy  ETV
31178	16568713 5702 130195 133048 1758.25 1797.75 159 0.973 11.810082123732 509.80974619963 2772.4266635047
31177	16574415 5328 130195 133048 1758.25 1797.75 159 -3.3756446838379 2.5 38.850629806519 276.62528211368
31176	16579743 5599 130174 133048 1758 1797.75 160 5.6500000953674 15.875 2191.1296005249 31380.761397623
31175	16585342 5951 130155 133048 1757.75 1797.75 161 486.67584228516 785.82187652588 92164.371009827 54500393.883191
31174	16591293 5947 130155 133048 1757.75 1797.75 161 235.12969970703 483.14999389648 69563.29385376 30992600.802308
vector 31253  IntersectionExampleScenario.node[543].veinsmobility  speed  ETV
vector 31254  IntersectionExampleScenario.node[543].veinsmobility  acceleration  ETV
vector 31255  IntersectionExampleScenario.node[543].veinsmobility  co2emission  ETV
vector 31258  IntersectionExampleScenario.node[544].veinsmobility  posx  ETV
vector 31259  IntersectionExampleScenario.node[544].veinsmobility  posy  ETV
vector 31260  IntersectionExampleScenario.node[544].veinsmobility  speed  ETV
vector 31261  IntersectionExampleScenario.node[544].veinsmobility  acceleration  ETV
vector 31262  IntersectionExampleScenario.node[544].veinsmobility  co2emission  ETV
31150	16597896 6970 129356 133179 1748.5 1800 207 0.973 10.916047529558 528.63222334324 2472.2751521989
31149	16604866 6473 129356 133179 1748.5 1800 207 -9.2688550949097 4 34.606801986694 476.05910171037
31148	16611339 6687 129333 133179 1748.25 1800 208 0 14.625 1940.6279459 25681.410158197
31147	16618026 7673 129310 133179 1748 1800 209 295.56396484375 483.14999389648 95882.659362793 44498034.743598
31146	16625699 7708 129310 133179 1748 1800 209 184.17810058594 483.36395263672 85892.970367432 37249167.566857
31157	16633407 6783 129556 133179 1750.75 1800 198 0.973 10.916047529558 556.09412816509 2646.8632795913
31156	16640190 6315 129556 133179 1750.75 1800 198 -4.5 2.5 39.872179031372 457.74226318363
31155	16646505 6666 129533 133179 1750.5 1800 199 0 15.65994644165 1908.3527494054 26383.531714041
31154	16653171 7394 129510 133179 1750.25 1800 200 322.82769775391 483.14999389648 93116.633544922 43660775.478518
31153	16660565 7341 129510 133179 1750.25 1800 200 167.29217529297 483.25756835938 80295.884490967 34341229.617354
31185	16667906 5627 130216 133179 1758.5 1800 167 0.973 11.200708441096 469.13924667184 2484.7957054943
31184	16673533 5874 130216 133179 1758.5 1800 167 -3.2142734527588 2.5 35.795671463013 313.59621285858
31183	16679407 5955 130195 133179 1758.25 1800 168 1.9847024679184 15.02499961853 1721.1023937464 21106.902663704
31182	16685362 6248 130174 133179 1758 1800 169 483.14999389648 611.33084106445 84038.042785645 41957540.521292
31181	16691610 6222 130174 133179 1758 1800 169 184.17810058594 486.85000610352 66128.331542969 27511131.821453
31192	16697832 5402 130450 133179 1761.25 1800 156 0.973 11.200708441096 475.41167599803 2470.4009496859
31191	16703234 5525 130450 133179 1761.25 1800 156 -4.5 2.5 38.881235122681 321.47871900604
31190	16708759 5538 130428 133179 1761 1800 157 3.5044558048248 15.405658721924 1676.3540062904 20916.816107968
31189	16714297 5842 130405 133179 1760.75 1800 158 483.14999389648 586.20056152344 77862.742584229 38458682.590652
31188	16720139 5813 130405 133179 1760.75 1800 158 169.95465087891 487.06707763672 59539.710083008 24099514.357521
31199	16725952 5428 130538 133179 1762.25 1800 152 0.973 12.099024792222 533.92593334835 3072.1153099319
31198	16731380 5332 130538 133179 1762.25 1800 152 -3.6334142684937 2.5000019073486 41.396924972534 402.15486847596
31197	16736712 5555 130515 133179 1762 1800 153 2.3031611442566 16.27499961853 2062.5470459461 30234.992037345
31196	16742267 5697 130492 133179 1761.75 1800 154 486.85000610352 486.85000610352 74974.900939941 36501530.980221
31195	16747964 5684 130492 133179 1761.75 1800 154 274.54083251953 785.82187652588 82735.564933777 47739053.784924
31206	16753648 3892 131352 133179 1771.25 1800 116 0.973 11.36141391502 427.60447061246 2896.7774066823
31205	16757540 3873 131352 133179 1771.25 1800 116 -3.6083335876465 2.5 37.89999961853 326.85645225825
31204	16761413 4001 131331 133179 1771 1800 117 5.6500000953674 15.25 1395.0381803513 17461.990412008
31203	16765414 4364 131310 133179 1770.75 1800 118 433.98602294922 483.14999389648 56561.392669678 27123880.048756
31202	16769778 4342 131310 133179 1770.75 1800 118 184.17810058594 483.14999389648 42304.980194092 16375441.700235
31213	16774120 3855 131494 133179 1773 1800 109 0.973 11.54047740176 378.84323356909 2359.5707410764
31212	16777975 3691 131494 133179 1773 1800 109 -4.5 2.5 38.89999961853 238.67780522927
31211	16781666 3833 131473 133179 1772.75 1800 110 5.6500000953674 15.5 1451.5964822769 19707.824185377
31210	16785499 4106 131452 133179 1772.5 1800 111 483.14999389648 483.14999389648 53629.64932251 25911164.742841
31209	16789605 4083 131452 133179 1772.5 1800 111 164.94219970703 522.50817871094 38037.691070557 14389206.974166
31220	16793688 3289 131840 133179 1777.5 1800 91 0.973 11.200708441096 273.82272591701 1360.9301328427
31219	16796977 2890 131840 133179 1777.5 1800 91 -3.6199722290039 2.5 21.39999961853 142.72279198486
31218	16799867 3259 131821 133179 1777.25 1800 92 5.6500000953674 15.02499961853 1251.5591783524 17505.995200181
31217	16803126 3439 131802 133179 1777 1800 93 486.85000610352 486.85000610352 45277.050567627 22043132.345198
31216	16806565 3434 131802 133179 1777 1800 93 476.54898071289 785.82187652588 59225.037147522 38586843.286552
31227	16809999 1361 132712 133179 1791 1800 37 1.5237915469079 11.200708441096 167.03739099124 1143.4930833901
31226	16811360 1279 132712 133179 1791 1800 37 -0.17160415649414 2.5 36.814805984497 93.817300262821
31225	16812639 1395 132699 133179 1790.75 1800 38 5.6500000953674 15.02499961853 492.688580513 6711.6524695227
31224	16814034 1441 132686 133179 1790.5 1800 39 667.60102844238 785.82187652588 28656.919090271 21111472.106495
31223	16815475 1442 132686 133179 1790.5 1800 39 483.14999389648 483.14999389648 18842.849761963 9103922.7474847
31234	16816917 1067 132809 133179 1793 1800 29 2.1640719651694 11.200708441096 161.50234765498 1164.9623750387
31233	16817984 930 132809 133179 1793 1800 29 -0.012611389160156 2.5 39.708364486694 94.383172917183
31232	16818914 1095 132796 133179 1792.75 1800 30 5.6500000953674 15.58745765686 381.62814998627 5182.6489311265
31231	16820009 1144 132783 133179 1792.5 1800 31 713.70266723633 803.92188262939 23763.81867981 18241936.895856
31230	16821153 1146 132783 133179 1792.5 1800 31 483.14999389648 483.14999389648 14977.649810791 7236451.4146674
31241	16822299 827 132882 133179 1794.5 1800 23 0.973 11.200708441096 134.42548218045 1071.6148535482
31240	16823126 699 132882 133179 1794.5 1800 23 -0.42623138427734 2.5 35.965749740601 94.16108489683
31239	16823825 879 132869 133179 1794.25 1800 24 5.6500000953674 15.02499961853 283.34081172943 3581.4551381398
31238	16824704 923 132856 133179 1794 1800 25 483.14999389648 483.14999389648 12078.749847412 5835847.9150543
31237	16825627 906 132856 133179 1794 1800 25 184.17810058594 250.12182617188 5276.578125 1124589.5843156
31248	16826533 441 133022 133179 1797.25 1800 12 5.2162187258585 9.8772939209111 90.329754123875 705.60800469607
31247	16826974 312 133022 133179 1797.25 1800 12 2.4999980926514 2.5 29.999998092651 74.99999046326
31246	16827286 473 133009 133179 1797 1800 13 5.6500000953674 13.14999961853 122.19999694824 1219.7736818981
31245	16827759 505 132996 133179 1796.75 1800 14 184.17810058594 210.50311279297 2727.2623901367 532292.57388077
31244	16828264 517 132996 133179 1796.75 1800 14 486.85000610352 486.85000610352 6815.9000854492 3318320.9982019
31255	16828781 294 133075 133179 1798.25 1800 8 5.2162187258585 8.1519697732254 53.421447184847 364.11653726105
31254	16829075 212 133075 133179 1798.25 1800 8 2.4999980926514 2.5 19.999998092651 49.99999046326
31253	16829287 329 133062 133179 1798 1800 9 5.6500000953674 10.64999961853 73.349998474121 621.23996916771
31252	16829616 369 133048 133179 1797.75 1800 10 483.14999389648 483.14999389648 4831.4999389648 2334339.1660217
31251	16829985 365 133048 133179 1797.75 1800 10 176.21716308594 191.26715087891 1823.3342285156 332710.56174798
31262	16830350 183 133118 133179 1799 1800 5 5.2162187258585 6.8826618500064 30.239051553249 184.61558649684
31261	16830533 135 133118 133179 1799 1800 5 2.4999980926514 2.5 12.499998092651 31.24999046326
31260	16830668 221 133103 133179 1798.75 1800 6 5.6500000953674 8.7749996185303 43.27499961853 318.95686711311
31259	16830889 258 133088 133179 1798.5 1800 7 486.85000610352 486.85000610352 3407.9500427246 1659160.499101
31258	16831147 258 133088 133179 1798.5 1800 7 777.58750915527 785.82187652588 5477.6125335693 4286380.3077755
27446	16831405 629 0 133178 0 1800 31 0 23 434 6720
27447	16832034 641 0 133178 0 1800 31 0 138 2195 207493
