version 2
run nodebug-2-20200605-20:01:51-14344
attr configname nodebug
attr datetime 20200605-20:01:51
attr experiment nodebug
attr inifile omnetpp.ini
attr iterationvars ""
attr iterationvars2 $repetition=2
attr measurement ""
attr network "\"org.car2x.veins.modules.application.ExtTraCIScenarioManagerLaunchd.IntersectionExampleScenario\""
attr processid 14344
attr repetition 2
attr replication #2
attr resultdir results
attr runnumber 2
attr seedset 2
param **.coreDebug false
param **.debug false
param *.**.nic.mac1609_4.bitrate 18Mbps
param *.**.nic.mac1609_4.txPower 20mW
param *.**.nic.mac1609_4.useServiceChannel false
param *.**.nic.phy80211p.analogueModels "xmldoc(\"config.xml\")"
param *.**.nic.phy80211p.decider "xmldoc(\"config.xml\")"
param *.**.nic.phy80211p.sensitivity -89dBm
param *.**.nic.phy80211p.thermalNoise -110dBm
param *.**.nic.phy80211p.usePropagationDelay true
param *.**.nic.phy80211p.useThermalNoise true
param *.annotations.draw false
param *.connectionManager.alpha 2.0
param *.connectionManager.carrierFrequency "5.890e9 Hz"
param *.connectionManager.pMax 20mW
param *.connectionManager.sat -89dBm
param *.connectionManager.sendDirect true
param *.manager.autoShutdown true
param *.manager.host "\"localhost\""
param *.manager.launchConfig "xmldoc(\"paramics.launchd.xml\")"
param *.manager.margin 25
param *.manager.moduleDisplayString "\"\""
param *.manager.moduleName "\"node\""
param *.manager.moduleType "\"org.car2x.veins.nodes.Car\""
param *.manager.port 9999
param *.manager.updateInterval 250ms
param *.node[*0].veinsmobility.accidentCount 0
param *.node[*0].veinsmobility.accidentDuration 30s
param *.node[*0].veinsmobility.accidentStart 75s
param *.node[*].appl.LiderSelectZoneRadio 55.0
param *.node[*].appl.ShareDataZoneRadio 110.0
param *.node[*].appl.TiempoSemaforo 30.0
param *.node[*].appl.beaconInterval 1s
param *.node[*].appl.beaconPriority 3
param *.node[*].appl.dataOnSch false
param *.node[*].appl.dataPriority 2
param *.node[*].appl.debug false
param *.node[*].appl.headerLength "256 bit"
param *.node[*].appl.maxOffset 0.005s
param *.node[*].appl.sendBeacons false
param *.node[*].appl.sendData true
param *.node[*].applType "\"Dummy\""
param *.node[*].mobilityType "\"TraCIMobility\""
param *.node[*].mobilityType.debug true
param *.node[*].veinsmobility.x 0
param *.node[*].veinsmobility.y 0
param *.node[*].veinsmobility.z 1.895
param *.node[*].veinsmobilityType "\"org.car2x.veins.modules.mobility.traci.TraCIMobility\""
param *.node[*].veinsmobilityType.debug true
param *.playgroundSizeX 8500m
param *.playgroundSizeY 8500m
param *.playgroundSizeZ 50m
param *.world.use2D false
param *.world.useTorus false

scalar IntersectionExampleScenario.node[0].appl 	VehicleRemoved 	0
scalar IntersectionExampleScenario.node[0].appl 	ArrivedAtDest 	1
scalar IntersectionExampleScenario.node[0].appl 	IntersectionEnterTime 	8.75
scalar IntersectionExampleScenario.node[0].appl 	IntersectionExitTime 	35.30441529915
scalar IntersectionExampleScenario.node[0].appl 	NumberOfCollisions 	0
scalar IntersectionExampleScenario.node[0].nic.phy80211p 	busyTime 	0
scalar IntersectionExampleScenario.node[0].nic.mac1609_4 	ReceivedUnicastPackets 	0
scalar IntersectionExampleScenario.node[0].nic.mac1609_4 	ReceivedBroadcasts 	0
scalar IntersectionExampleScenario.node[0].nic.mac1609_4 	SentPackets 	0
scalar IntersectionExampleScenario.node[0].nic.mac1609_4 	SNIRLostPackets 	0
scalar IntersectionExampleScenario.node[0].nic.mac1609_4 	RXTXLostPackets 	0
scalar IntersectionExampleScenario.node[0].nic.mac1609_4 	TotalLostPackets 	0
scalar IntersectionExampleScenario.node[0].nic.mac1609_4 	DroppedPacketsInMac 	0
scalar IntersectionExampleScenario.node[0].nic.mac1609_4 	TooLittleTime 	0
scalar IntersectionExampleScenario.node[0].nic.mac1609_4 	TimesIntoBackoff 	0
scalar IntersectionExampleScenario.node[0].nic.mac1609_4 	SlotsBackoff 	0
scalar IntersectionExampleScenario.node[0].nic.mac1609_4 	NumInternalContention 	0
scalar IntersectionExampleScenario.node[0].nic.mac1609_4 	totalBusyTime 	0
scalar IntersectionExampleScenario.node[0].veinsmobility 	startTime 	8.75
scalar IntersectionExampleScenario.node[0].veinsmobility 	totalTime 	41.75
scalar IntersectionExampleScenario.node[0].veinsmobility 	stopTime 	50.75
scalar IntersectionExampleScenario.node[0].veinsmobility 	minSpeed 	0
scalar IntersectionExampleScenario.node[0].veinsmobility 	maxSpeed 	16.27499961853
scalar IntersectionExampleScenario.node[0].veinsmobility 	totalDistance 	551.7405166626
scalar IntersectionExampleScenario.node[0].veinsmobility 	totalCO2Emission 	140.83733726436
scalar IntersectionExampleScenario.node[1].appl 	VehicleRemoved 	0
scalar IntersectionExampleScenario.node[1].appl 	ArrivedAtDest 	1
scalar IntersectionExampleScenario.node[1].appl 	IntersectionEnterTime 	23.5
scalar IntersectionExampleScenario.node[1].appl 	IntersectionExitTime 	46.327408871293
scalar IntersectionExampleScenario.node[1].appl 	NumberOfCollisions 	0
scalar IntersectionExampleScenario.node[1].nic.phy80211p 	busyTime 	0
scalar IntersectionExampleScenario.node[1].nic.mac1609_4 	ReceivedUnicastPackets 	0
scalar IntersectionExampleScenario.node[1].nic.mac1609_4 	ReceivedBroadcasts 	0
scalar IntersectionExampleScenario.node[1].nic.mac1609_4 	SentPackets 	0
scalar IntersectionExampleScenario.node[1].nic.mac1609_4 	SNIRLostPackets 	0
scalar IntersectionExampleScenario.node[1].nic.mac1609_4 	RXTXLostPackets 	0
scalar IntersectionExampleScenario.node[1].nic.mac1609_4 	TotalLostPackets 	0
scalar IntersectionExampleScenario.node[1].nic.mac1609_4 	DroppedPacketsInMac 	0
scalar IntersectionExampleScenario.node[1].nic.mac1609_4 	TooLittleTime 	0
scalar IntersectionExampleScenario.node[1].nic.mac1609_4 	TimesIntoBackoff 	0
scalar IntersectionExampleScenario.node[1].nic.mac1609_4 	SlotsBackoff 	0
scalar IntersectionExampleScenario.node[1].nic.mac1609_4 	NumInternalContention 	0
scalar IntersectionExampleScenario.node[1].nic.mac1609_4 	totalBusyTime 	0
scalar IntersectionExampleScenario.node[1].veinsmobility 	startTime 	23.5
scalar IntersectionExampleScenario.node[1].veinsmobility 	totalTime 	38.75
scalar IntersectionExampleScenario.node[1].veinsmobility 	stopTime 	62.5
scalar IntersectionExampleScenario.node[1].veinsmobility 	minSpeed 	5.6500000953674
scalar IntersectionExampleScenario.node[1].veinsmobility 	maxSpeed 	16.27499961853
scalar IntersectionExampleScenario.node[1].veinsmobility 	totalDistance 	550.98492648582
scalar IntersectionExampleScenario.node[1].veinsmobility 	totalCO2Emission 	125.76508042335
scalar IntersectionExampleScenario.node[3].appl 	VehicleRemoved 	0
scalar IntersectionExampleScenario.node[3].appl 	ArrivedAtDest 	1
scalar IntersectionExampleScenario.node[3].appl 	IntersectionEnterTime 	27.25
scalar IntersectionExampleScenario.node[3].appl 	IntersectionExitTime 	51.84816689344
scalar IntersectionExampleScenario.node[3].appl 	NumberOfCollisions 	0
scalar IntersectionExampleScenario.node[3].nic.phy80211p 	busyTime 	0
scalar IntersectionExampleScenario.node[3].nic.mac1609_4 	ReceivedUnicastPackets 	0
scalar IntersectionExampleScenario.node[3].nic.mac1609_4 	ReceivedBroadcasts 	0
scalar IntersectionExampleScenario.node[3].nic.mac1609_4 	SentPackets 	0
scalar IntersectionExampleScenario.node[3].nic.mac1609_4 	SNIRLostPackets 	0
scalar IntersectionExampleScenario.node[3].nic.mac1609_4 	RXTXLostPackets 	0
scalar IntersectionExampleScenario.node[3].nic.mac1609_4 	TotalLostPackets 	0
scalar IntersectionExampleScenario.node[3].nic.mac1609_4 	DroppedPacketsInMac 	0
scalar IntersectionExampleScenario.node[3].nic.mac1609_4 	TooLittleTime 	0
scalar IntersectionExampleScenario.node[3].nic.mac1609_4 	TimesIntoBackoff 	0
scalar IntersectionExampleScenario.node[3].nic.mac1609_4 	SlotsBackoff 	0
scalar IntersectionExampleScenario.node[3].nic.mac1609_4 	NumInternalContention 	0
scalar IntersectionExampleScenario.node[3].nic.mac1609_4 	totalBusyTime 	0
scalar IntersectionExampleScenario.node[3].veinsmobility 	startTime 	27.25
scalar IntersectionExampleScenario.node[3].veinsmobility 	totalTime 	40
scalar IntersectionExampleScenario.node[3].veinsmobility 	stopTime 	67.5
scalar IntersectionExampleScenario.node[3].veinsmobility 	minSpeed 	5.6500000953674
scalar IntersectionExampleScenario.node[3].veinsmobility 	maxSpeed 	16.625
scalar IntersectionExampleScenario.node[3].veinsmobility 	totalDistance 	568.03807017401
scalar IntersectionExampleScenario.node[3].veinsmobility 	totalCO2Emission 	136.92795692044
scalar IntersectionExampleScenario.node[2].appl 	VehicleRemoved 	0
scalar IntersectionExampleScenario.node[2].appl 	ArrivedAtDest 	1
scalar IntersectionExampleScenario.node[2].appl 	IntersectionEnterTime 	25
scalar IntersectionExampleScenario.node[2].appl 	IntersectionExitTime 	50.816142761294
scalar IntersectionExampleScenario.node[2].appl 	NumberOfCollisions 	0
scalar IntersectionExampleScenario.node[2].nic.phy80211p 	busyTime 	0
scalar IntersectionExampleScenario.node[2].nic.mac1609_4 	ReceivedUnicastPackets 	0
scalar IntersectionExampleScenario.node[2].nic.mac1609_4 	ReceivedBroadcasts 	0
scalar IntersectionExampleScenario.node[2].nic.mac1609_4 	SentPackets 	0
scalar IntersectionExampleScenario.node[2].nic.mac1609_4 	SNIRLostPackets 	0
scalar IntersectionExampleScenario.node[2].nic.mac1609_4 	RXTXLostPackets 	0
scalar IntersectionExampleScenario.node[2].nic.mac1609_4 	TotalLostPackets 	0
scalar IntersectionExampleScenario.node[2].nic.mac1609_4 	DroppedPacketsInMac 	0
scalar IntersectionExampleScenario.node[2].nic.mac1609_4 	TooLittleTime 	0
scalar IntersectionExampleScenario.node[2].nic.mac1609_4 	TimesIntoBackoff 	0
scalar IntersectionExampleScenario.node[2].nic.mac1609_4 	SlotsBackoff 	0
scalar IntersectionExampleScenario.node[2].nic.mac1609_4 	NumInternalContention 	0
scalar IntersectionExampleScenario.node[2].nic.mac1609_4 	totalBusyTime 	0
scalar IntersectionExampleScenario.node[2].veinsmobility 	startTime 	25
scalar IntersectionExampleScenario.node[2].veinsmobility 	totalTime 	42.25
scalar IntersectionExampleScenario.node[2].veinsmobility 	stopTime 	67.5
scalar IntersectionExampleScenario.node[2].veinsmobility 	minSpeed 	3.7402939796448
scalar IntersectionExampleScenario.node[2].veinsmobility 	maxSpeed 	15.02499961853
scalar IntersectionExampleScenario.node[2].veinsmobility 	totalDistance 	552.3966217041
scalar IntersectionExampleScenario.node[2].veinsmobility 	totalCO2Emission 	128.47156767337
scalar IntersectionExampleScenario.node[4].appl 	VehicleRemoved 	0
scalar IntersectionExampleScenario.node[4].appl 	ArrivedAtDest 	1
scalar IntersectionExampleScenario.node[4].appl 	IntersectionEnterTime 	32.5
scalar IntersectionExampleScenario.node[4].appl 	IntersectionExitTime 	65.509955683869
scalar IntersectionExampleScenario.node[4].appl 	NumberOfCollisions 	0
scalar IntersectionExampleScenario.node[4].nic.phy80211p 	busyTime 	0
scalar IntersectionExampleScenario.node[4].nic.mac1609_4 	ReceivedUnicastPackets 	0
scalar IntersectionExampleScenario.node[4].nic.mac1609_4 	ReceivedBroadcasts 	0
scalar IntersectionExampleScenario.node[4].nic.mac1609_4 	SentPackets 	0
scalar IntersectionExampleScenario.node[4].nic.mac1609_4 	SNIRLostPackets 	0
scalar IntersectionExampleScenario.node[4].nic.mac1609_4 	RXTXLostPackets 	0
scalar IntersectionExampleScenario.node[4].nic.mac1609_4 	TotalLostPackets 	0
scalar IntersectionExampleScenario.node[4].nic.mac1609_4 	DroppedPacketsInMac 	0
scalar IntersectionExampleScenario.node[4].nic.mac1609_4 	TooLittleTime 	0
scalar IntersectionExampleScenario.node[4].nic.mac1609_4 	TimesIntoBackoff 	0
scalar IntersectionExampleScenario.node[4].nic.mac1609_4 	SlotsBackoff 	0
scalar IntersectionExampleScenario.node[4].nic.mac1609_4 	NumInternalContention 	0
scalar IntersectionExampleScenario.node[4].nic.mac1609_4 	totalBusyTime 	0
scalar IntersectionExampleScenario.node[4].veinsmobility 	startTime 	32.5
scalar IntersectionExampleScenario.node[4].veinsmobility 	totalTime 	49.75
scalar IntersectionExampleScenario.node[4].veinsmobility 	stopTime 	82.5
scalar IntersectionExampleScenario.node[4].veinsmobility 	minSpeed 	0
scalar IntersectionExampleScenario.node[4].veinsmobility 	maxSpeed 	15.64999961853
scalar IntersectionExampleScenario.node[4].veinsmobility 	totalDistance 	544.42740537078
scalar IntersectionExampleScenario.node[4].veinsmobility 	totalCO2Emission 	141.82924088446
scalar IntersectionExampleScenario.node[5].appl 	VehicleRemoved 	0
scalar IntersectionExampleScenario.node[5].appl 	ArrivedAtDest 	1
scalar IntersectionExampleScenario.node[5].appl 	IntersectionEnterTime 	33.25
scalar IntersectionExampleScenario.node[5].appl 	IntersectionExitTime 	65.512066365191
scalar IntersectionExampleScenario.node[5].appl 	NumberOfCollisions 	0
scalar IntersectionExampleScenario.node[5].nic.phy80211p 	busyTime 	0
scalar IntersectionExampleScenario.node[5].nic.mac1609_4 	ReceivedUnicastPackets 	0
scalar IntersectionExampleScenario.node[5].nic.mac1609_4 	ReceivedBroadcasts 	0
scalar IntersectionExampleScenario.node[5].nic.mac1609_4 	SentPackets 	0
scalar IntersectionExampleScenario.node[5].nic.mac1609_4 	SNIRLostPackets 	0
scalar IntersectionExampleScenario.node[5].nic.mac1609_4 	RXTXLostPackets 	0
scalar IntersectionExampleScenario.node[5].nic.mac1609_4 	TotalLostPackets 	0
scalar IntersectionExampleScenario.node[5].nic.mac1609_4 	DroppedPacketsInMac 	0
scalar IntersectionExampleScenario.node[5].nic.mac1609_4 	TooLittleTime 	0
scalar IntersectionExampleScenario.node[5].nic.mac1609_4 	TimesIntoBackoff 	0
scalar IntersectionExampleScenario.node[5].nic.mac1609_4 	SlotsBackoff 	0
scalar IntersectionExampleScenario.node[5].nic.mac1609_4 	NumInternalContention 	0
scalar IntersectionExampleScenario.node[5].nic.mac1609_4 	totalBusyTime 	0
scalar IntersectionExampleScenario.node[5].veinsmobility 	startTime 	33.25
scalar IntersectionExampleScenario.node[5].veinsmobility 	totalTime 	49.25
scalar IntersectionExampleScenario.node[5].veinsmobility 	stopTime 	82.75
scalar IntersectionExampleScenario.node[5].veinsmobility 	minSpeed 	0
scalar IntersectionExampleScenario.node[5].veinsmobility 	maxSpeed 	15.25
scalar IntersectionExampleScenario.node[5].veinsmobility 	totalDistance 	543.38601590545
scalar IntersectionExampleScenario.node[5].veinsmobility 	totalCO2Emission 	138.23251551698
scalar IntersectionExampleScenario.node[9].appl 	VehicleRemoved 	0
scalar IntersectionExampleScenario.node[9].appl 	ArrivedAtDest 	1
scalar IntersectionExampleScenario.node[9].appl 	IntersectionEnterTime 	40.75
scalar IntersectionExampleScenario.node[9].appl 	IntersectionExitTime 	67.83759404294
scalar IntersectionExampleScenario.node[9].appl 	NumberOfCollisions 	0
scalar IntersectionExampleScenario.node[9].nic.phy80211p 	busyTime 	0
scalar IntersectionExampleScenario.node[9].nic.mac1609_4 	ReceivedUnicastPackets 	0
scalar IntersectionExampleScenario.node[9].nic.mac1609_4 	ReceivedBroadcasts 	0
scalar IntersectionExampleScenario.node[9].nic.mac1609_4 	SentPackets 	0
scalar IntersectionExampleScenario.node[9].nic.mac1609_4 	SNIRLostPackets 	0
scalar IntersectionExampleScenario.node[9].nic.mac1609_4 	RXTXLostPackets 	0
scalar IntersectionExampleScenario.node[9].nic.mac1609_4 	TotalLostPackets 	0
scalar IntersectionExampleScenario.node[9].nic.mac1609_4 	DroppedPacketsInMac 	0
scalar IntersectionExampleScenario.node[9].nic.mac1609_4 	TooLittleTime 	0
scalar IntersectionExampleScenario.node[9].nic.mac1609_4 	TimesIntoBackoff 	0
scalar IntersectionExampleScenario.node[9].nic.mac1609_4 	SlotsBackoff 	0
scalar IntersectionExampleScenario.node[9].nic.mac1609_4 	NumInternalContention 	0
scalar IntersectionExampleScenario.node[9].nic.mac1609_4 	totalBusyTime 	0
scalar IntersectionExampleScenario.node[9].veinsmobility 	startTime 	40.75
scalar IntersectionExampleScenario.node[9].veinsmobility 	totalTime 	42.75
scalar IntersectionExampleScenario.node[9].veinsmobility 	stopTime 	83.75
scalar IntersectionExampleScenario.node[9].veinsmobility 	minSpeed 	4.2662062644958
scalar IntersectionExampleScenario.node[9].veinsmobility 	maxSpeed 	16.125
scalar IntersectionExampleScenario.node[9].veinsmobility 	totalDistance 	554.43747711182
scalar IntersectionExampleScenario.node[9].veinsmobility 	totalCO2Emission 	132.86151343015
scalar IntersectionExampleScenario.node[8].appl 	VehicleRemoved 	0
scalar IntersectionExampleScenario.node[8].appl 	ArrivedAtDest 	1
scalar IntersectionExampleScenario.node[8].appl 	IntersectionEnterTime 	39.25
scalar IntersectionExampleScenario.node[8].appl 	IntersectionExitTime 	68.298361581314
scalar IntersectionExampleScenario.node[8].appl 	NumberOfCollisions 	0
scalar IntersectionExampleScenario.node[8].nic.phy80211p 	busyTime 	0
scalar IntersectionExampleScenario.node[8].nic.mac1609_4 	ReceivedUnicastPackets 	0
scalar IntersectionExampleScenario.node[8].nic.mac1609_4 	ReceivedBroadcasts 	0
scalar IntersectionExampleScenario.node[8].nic.mac1609_4 	SentPackets 	0
scalar IntersectionExampleScenario.node[8].nic.mac1609_4 	SNIRLostPackets 	0
scalar IntersectionExampleScenario.node[8].nic.mac1609_4 	RXTXLostPackets 	0
scalar IntersectionExampleScenario.node[8].nic.mac1609_4 	TotalLostPackets 	0
scalar IntersectionExampleScenario.node[8].nic.mac1609_4 	DroppedPacketsInMac 	0
scalar IntersectionExampleScenario.node[8].nic.mac1609_4 	TooLittleTime 	0
scalar IntersectionExampleScenario.node[8].nic.mac1609_4 	TimesIntoBackoff 	0
scalar IntersectionExampleScenario.node[8].nic.mac1609_4 	SlotsBackoff 	0
scalar IntersectionExampleScenario.node[8].nic.mac1609_4 	NumInternalContention 	0
scalar IntersectionExampleScenario.node[8].nic.mac1609_4 	totalBusyTime 	0
scalar IntersectionExampleScenario.node[8].veinsmobility 	startTime 	39.25
scalar IntersectionExampleScenario.node[8].veinsmobility 	totalTime 	46
scalar IntersectionExampleScenario.node[8].veinsmobility 	stopTime 	85.5
scalar IntersectionExampleScenario.node[8].veinsmobility 	minSpeed 	0.96712481975555
scalar IntersectionExampleScenario.node[8].veinsmobility 	maxSpeed 	15.25
scalar IntersectionExampleScenario.node[8].veinsmobility 	totalDistance 	516.93367217641
scalar IntersectionExampleScenario.node[8].veinsmobility 	totalCO2Emission 	130.29705217429
scalar IntersectionExampleScenario.node[6].appl 	VehicleRemoved 	0
scalar IntersectionExampleScenario.node[6].appl 	ArrivedAtDest 	1
scalar IntersectionExampleScenario.node[6].appl 	IntersectionEnterTime 	38
scalar IntersectionExampleScenario.node[6].appl 	IntersectionExitTime 	70.263368210581
scalar IntersectionExampleScenario.node[6].appl 	NumberOfCollisions 	0
scalar IntersectionExampleScenario.node[6].nic.phy80211p 	busyTime 	0
scalar IntersectionExampleScenario.node[6].nic.mac1609_4 	ReceivedUnicastPackets 	0
scalar IntersectionExampleScenario.node[6].nic.mac1609_4 	ReceivedBroadcasts 	0
scalar IntersectionExampleScenario.node[6].nic.mac1609_4 	SentPackets 	0
scalar IntersectionExampleScenario.node[6].nic.mac1609_4 	SNIRLostPackets 	0
scalar IntersectionExampleScenario.node[6].nic.mac1609_4 	RXTXLostPackets 	0
scalar IntersectionExampleScenario.node[6].nic.mac1609_4 	TotalLostPackets 	0
scalar IntersectionExampleScenario.node[6].nic.mac1609_4 	DroppedPacketsInMac 	0
scalar IntersectionExampleScenario.node[6].nic.mac1609_4 	TooLittleTime 	0
scalar IntersectionExampleScenario.node[6].nic.mac1609_4 	TimesIntoBackoff 	0
scalar IntersectionExampleScenario.node[6].nic.mac1609_4 	SlotsBackoff 	0
scalar IntersectionExampleScenario.node[6].nic.mac1609_4 	NumInternalContention 	0
scalar IntersectionExampleScenario.node[6].nic.mac1609_4 	totalBusyTime 	0
scalar IntersectionExampleScenario.node[6].veinsmobility 	startTime 	38
scalar IntersectionExampleScenario.node[6].veinsmobility 	totalTime 	48.75
scalar IntersectionExampleScenario.node[6].veinsmobility 	stopTime 	87
scalar IntersectionExampleScenario.node[6].veinsmobility 	minSpeed 	4.0587754249573
scalar IntersectionExampleScenario.node[6].veinsmobility 	maxSpeed 	14.875
scalar IntersectionExampleScenario.node[6].veinsmobility 	totalDistance 	552.19526672363
scalar IntersectionExampleScenario.node[6].veinsmobility 	totalCO2Emission 	136.98977021974
scalar IntersectionExampleScenario.node[10].appl 	VehicleRemoved 	0
scalar IntersectionExampleScenario.node[10].appl 	ArrivedAtDest 	1
scalar IntersectionExampleScenario.node[10].appl 	IntersectionEnterTime 	43.75
scalar IntersectionExampleScenario.node[10].appl 	IntersectionExitTime 	70.62415828649
scalar IntersectionExampleScenario.node[10].appl 	NumberOfCollisions 	0
scalar IntersectionExampleScenario.node[10].nic.phy80211p 	busyTime 	0
scalar IntersectionExampleScenario.node[10].nic.mac1609_4 	ReceivedUnicastPackets 	0
scalar IntersectionExampleScenario.node[10].nic.mac1609_4 	ReceivedBroadcasts 	0
scalar IntersectionExampleScenario.node[10].nic.mac1609_4 	SentPackets 	0
scalar IntersectionExampleScenario.node[10].nic.mac1609_4 	SNIRLostPackets 	0
scalar IntersectionExampleScenario.node[10].nic.mac1609_4 	RXTXLostPackets 	0
scalar IntersectionExampleScenario.node[10].nic.mac1609_4 	TotalLostPackets 	0
scalar IntersectionExampleScenario.node[10].nic.mac1609_4 	DroppedPacketsInMac 	0
scalar IntersectionExampleScenario.node[10].nic.mac1609_4 	TooLittleTime 	0
scalar IntersectionExampleScenario.node[10].nic.mac1609_4 	TimesIntoBackoff 	0
scalar IntersectionExampleScenario.node[10].nic.mac1609_4 	SlotsBackoff 	0
scalar IntersectionExampleScenario.node[10].nic.mac1609_4 	NumInternalContention 	0
scalar IntersectionExampleScenario.node[10].nic.mac1609_4 	totalBusyTime 	0
scalar IntersectionExampleScenario.node[10].veinsmobility 	startTime 	43.75
scalar IntersectionExampleScenario.node[10].veinsmobility 	totalTime 	43
scalar IntersectionExampleScenario.node[10].veinsmobility 	stopTime 	87
scalar IntersectionExampleScenario.node[10].veinsmobility 	minSpeed 	5.6500000953674
scalar IntersectionExampleScenario.node[10].veinsmobility 	maxSpeed 	15.02499961853
scalar IntersectionExampleScenario.node[10].veinsmobility 	totalDistance 	563.76014709473
scalar IntersectionExampleScenario.node[10].veinsmobility 	totalCO2Emission 	128.68255017454
scalar IntersectionExampleScenario.node[7].appl 	VehicleRemoved 	0
scalar IntersectionExampleScenario.node[7].appl 	ArrivedAtDest 	1
scalar IntersectionExampleScenario.node[7].appl 	IntersectionEnterTime 	38.75
scalar IntersectionExampleScenario.node[7].appl 	IntersectionExitTime 	72.775217903371
scalar IntersectionExampleScenario.node[7].appl 	NumberOfCollisions 	0
scalar IntersectionExampleScenario.node[7].nic.phy80211p 	busyTime 	0
scalar IntersectionExampleScenario.node[7].nic.mac1609_4 	ReceivedUnicastPackets 	0
scalar IntersectionExampleScenario.node[7].nic.mac1609_4 	ReceivedBroadcasts 	0
scalar IntersectionExampleScenario.node[7].nic.mac1609_4 	SentPackets 	0
scalar IntersectionExampleScenario.node[7].nic.mac1609_4 	SNIRLostPackets 	0
scalar IntersectionExampleScenario.node[7].nic.mac1609_4 	RXTXLostPackets 	0
scalar IntersectionExampleScenario.node[7].nic.mac1609_4 	TotalLostPackets 	0
scalar IntersectionExampleScenario.node[7].nic.mac1609_4 	DroppedPacketsInMac 	0
scalar IntersectionExampleScenario.node[7].nic.mac1609_4 	TooLittleTime 	0
scalar IntersectionExampleScenario.node[7].nic.mac1609_4 	TimesIntoBackoff 	0
scalar IntersectionExampleScenario.node[7].nic.mac1609_4 	SlotsBackoff 	0
scalar IntersectionExampleScenario.node[7].nic.mac1609_4 	NumInternalContention 	0
scalar IntersectionExampleScenario.node[7].nic.mac1609_4 	totalBusyTime 	0
scalar IntersectionExampleScenario.node[7].veinsmobility 	startTime 	38.75
scalar IntersectionExampleScenario.node[7].veinsmobility 	totalTime 	50.75
scalar IntersectionExampleScenario.node[7].veinsmobility 	stopTime 	89.75
scalar IntersectionExampleScenario.node[7].veinsmobility 	minSpeed 	3.2201442718506
scalar IntersectionExampleScenario.node[7].veinsmobility 	maxSpeed 	15.25
scalar IntersectionExampleScenario.node[7].veinsmobility 	totalDistance 	567.53565657878
scalar IntersectionExampleScenario.node[7].veinsmobility 	totalCO2Emission 	146.93493034601
scalar IntersectionExampleScenario.node[14].appl 	VehicleRemoved 	0
scalar IntersectionExampleScenario.node[14].appl 	ArrivedAtDest 	1
scalar IntersectionExampleScenario.node[14].appl 	IntersectionEnterTime 	51.25
scalar IntersectionExampleScenario.node[14].appl 	IntersectionExitTime 	75.117649162858
scalar IntersectionExampleScenario.node[14].appl 	NumberOfCollisions 	0
scalar IntersectionExampleScenario.node[14].nic.phy80211p 	busyTime 	0
scalar IntersectionExampleScenario.node[14].nic.mac1609_4 	ReceivedUnicastPackets 	0
scalar IntersectionExampleScenario.node[14].nic.mac1609_4 	ReceivedBroadcasts 	0
scalar IntersectionExampleScenario.node[14].nic.mac1609_4 	SentPackets 	0
scalar IntersectionExampleScenario.node[14].nic.mac1609_4 	SNIRLostPackets 	0
scalar IntersectionExampleScenario.node[14].nic.mac1609_4 	RXTXLostPackets 	0
scalar IntersectionExampleScenario.node[14].nic.mac1609_4 	TotalLostPackets 	0
scalar IntersectionExampleScenario.node[14].nic.mac1609_4 	DroppedPacketsInMac 	0
scalar IntersectionExampleScenario.node[14].nic.mac1609_4 	TooLittleTime 	0
scalar IntersectionExampleScenario.node[14].nic.mac1609_4 	TimesIntoBackoff 	0
scalar IntersectionExampleScenario.node[14].nic.mac1609_4 	SlotsBackoff 	0
scalar IntersectionExampleScenario.node[14].nic.mac1609_4 	NumInternalContention 	0
scalar IntersectionExampleScenario.node[14].nic.mac1609_4 	totalBusyTime 	0
scalar IntersectionExampleScenario.node[14].veinsmobility 	startTime 	51.25
scalar IntersectionExampleScenario.node[14].veinsmobility 	totalTime 	39.75
scalar IntersectionExampleScenario.node[14].veinsmobility 	stopTime 	91.25
scalar IntersectionExampleScenario.node[14].veinsmobility 	minSpeed 	5.6500000953674
scalar IntersectionExampleScenario.node[14].veinsmobility 	maxSpeed 	15.64999961853
scalar IntersectionExampleScenario.node[14].veinsmobility 	totalDistance 	551.9737701416
scalar IntersectionExampleScenario.node[14].veinsmobility 	totalCO2Emission 	132.42148006476
scalar IntersectionExampleScenario.node[15].appl 	VehicleRemoved 	0
scalar IntersectionExampleScenario.node[15].appl 	ArrivedAtDest 	1
scalar IntersectionExampleScenario.node[15].appl 	IntersectionEnterTime 	52.75
scalar IntersectionExampleScenario.node[15].appl 	IntersectionExitTime 	76.060127719393
scalar IntersectionExampleScenario.node[15].appl 	NumberOfCollisions 	0
scalar IntersectionExampleScenario.node[15].nic.phy80211p 	busyTime 	0
scalar IntersectionExampleScenario.node[15].nic.mac1609_4 	ReceivedUnicastPackets 	0
scalar IntersectionExampleScenario.node[15].nic.mac1609_4 	ReceivedBroadcasts 	0
scalar IntersectionExampleScenario.node[15].nic.mac1609_4 	SentPackets 	0
scalar IntersectionExampleScenario.node[15].nic.mac1609_4 	SNIRLostPackets 	0
scalar IntersectionExampleScenario.node[15].nic.mac1609_4 	RXTXLostPackets 	0
scalar IntersectionExampleScenario.node[15].nic.mac1609_4 	TotalLostPackets 	0
scalar IntersectionExampleScenario.node[15].nic.mac1609_4 	DroppedPacketsInMac 	0
scalar IntersectionExampleScenario.node[15].nic.mac1609_4 	TooLittleTime 	0
scalar IntersectionExampleScenario.node[15].nic.mac1609_4 	TimesIntoBackoff 	0
scalar IntersectionExampleScenario.node[15].nic.mac1609_4 	SlotsBackoff 	0
scalar IntersectionExampleScenario.node[15].nic.mac1609_4 	NumInternalContention 	0
scalar IntersectionExampleScenario.node[15].nic.mac1609_4 	totalBusyTime 	0
scalar IntersectionExampleScenario.node[15].veinsmobility 	startTime 	52.75
scalar IntersectionExampleScenario.node[15].veinsmobility 	totalTime 	40
scalar IntersectionExampleScenario.node[15].veinsmobility 	stopTime 	93
scalar IntersectionExampleScenario.node[15].veinsmobility 	minSpeed 	5.6500000953674
scalar IntersectionExampleScenario.node[15].veinsmobility 	maxSpeed 	15.875
scalar IntersectionExampleScenario.node[15].veinsmobility 	totalDistance 	545.64356748556
scalar IntersectionExampleScenario.node[15].veinsmobility 	totalCO2Emission 	127.2020201939
scalar IntersectionExampleScenario.node[17].appl 	VehicleRemoved 	0
scalar IntersectionExampleScenario.node[17].appl 	ArrivedAtDest 	1
scalar IntersectionExampleScenario.node[17].appl 	IntersectionEnterTime 	56
scalar IntersectionExampleScenario.node[17].appl 	IntersectionExitTime 	79.360558949906
scalar IntersectionExampleScenario.node[17].appl 	NumberOfCollisions 	0
scalar IntersectionExampleScenario.node[17].nic.phy80211p 	busyTime 	0
scalar IntersectionExampleScenario.node[17].nic.mac1609_4 	ReceivedUnicastPackets 	0
scalar IntersectionExampleScenario.node[17].nic.mac1609_4 	ReceivedBroadcasts 	0
scalar IntersectionExampleScenario.node[17].nic.mac1609_4 	SentPackets 	0
scalar IntersectionExampleScenario.node[17].nic.mac1609_4 	SNIRLostPackets 	0
scalar IntersectionExampleScenario.node[17].nic.mac1609_4 	RXTXLostPackets 	0
scalar IntersectionExampleScenario.node[17].nic.mac1609_4 	TotalLostPackets 	0
scalar IntersectionExampleScenario.node[17].nic.mac1609_4 	DroppedPacketsInMac 	0
scalar IntersectionExampleScenario.node[17].nic.mac1609_4 	TooLittleTime 	0
scalar IntersectionExampleScenario.node[17].nic.mac1609_4 	TimesIntoBackoff 	0
scalar IntersectionExampleScenario.node[17].nic.mac1609_4 	SlotsBackoff 	0
scalar IntersectionExampleScenario.node[17].nic.mac1609_4 	NumInternalContention 	0
scalar IntersectionExampleScenario.node[17].nic.mac1609_4 	totalBusyTime 	0
scalar IntersectionExampleScenario.node[17].veinsmobility 	startTime 	56
scalar IntersectionExampleScenario.node[17].veinsmobility 	totalTime 	38.75
scalar IntersectionExampleScenario.node[17].veinsmobility 	stopTime 	95
scalar IntersectionExampleScenario.node[17].veinsmobility 	minSpeed 	5.6500000953674
scalar IntersectionExampleScenario.node[17].veinsmobility 	maxSpeed 	16.125
scalar IntersectionExampleScenario.node[17].veinsmobility 	totalDistance 	563.28522491455
scalar IntersectionExampleScenario.node[17].veinsmobility 	totalCO2Emission 	123.09466150985
scalar IntersectionExampleScenario.node[12].appl 	VehicleRemoved 	0
scalar IntersectionExampleScenario.node[12].appl 	ArrivedAtDest 	1
scalar IntersectionExampleScenario.node[12].appl 	IntersectionEnterTime 	46.75
scalar IntersectionExampleScenario.node[12].appl 	IntersectionExitTime 	82.351767302112
scalar IntersectionExampleScenario.node[12].appl 	NumberOfCollisions 	0
scalar IntersectionExampleScenario.node[12].nic.phy80211p 	busyTime 	0
scalar IntersectionExampleScenario.node[12].nic.mac1609_4 	ReceivedUnicastPackets 	0
scalar IntersectionExampleScenario.node[12].nic.mac1609_4 	ReceivedBroadcasts 	0
scalar IntersectionExampleScenario.node[12].nic.mac1609_4 	SentPackets 	0
scalar IntersectionExampleScenario.node[12].nic.mac1609_4 	SNIRLostPackets 	0
scalar IntersectionExampleScenario.node[12].nic.mac1609_4 	RXTXLostPackets 	0
scalar IntersectionExampleScenario.node[12].nic.mac1609_4 	TotalLostPackets 	0
scalar IntersectionExampleScenario.node[12].nic.mac1609_4 	DroppedPacketsInMac 	0
scalar IntersectionExampleScenario.node[12].nic.mac1609_4 	TooLittleTime 	0
scalar IntersectionExampleScenario.node[12].nic.mac1609_4 	TimesIntoBackoff 	0
scalar IntersectionExampleScenario.node[12].nic.mac1609_4 	SlotsBackoff 	0
scalar IntersectionExampleScenario.node[12].nic.mac1609_4 	NumInternalContention 	0
scalar IntersectionExampleScenario.node[12].nic.mac1609_4 	totalBusyTime 	0
scalar IntersectionExampleScenario.node[12].veinsmobility 	startTime 	46.75
scalar IntersectionExampleScenario.node[12].veinsmobility 	totalTime 	50.75
scalar IntersectionExampleScenario.node[12].veinsmobility 	stopTime 	97.75
scalar IntersectionExampleScenario.node[12].veinsmobility 	minSpeed 	0
scalar IntersectionExampleScenario.node[12].veinsmobility 	maxSpeed 	16.27499961853
scalar IntersectionExampleScenario.node[12].veinsmobility 	totalDistance 	551.74052429199
scalar IntersectionExampleScenario.node[12].veinsmobility 	totalCO2Emission 	149.59433742732
scalar IntersectionExampleScenario.node[11].appl 	VehicleRemoved 	0
scalar IntersectionExampleScenario.node[11].appl 	ArrivedAtDest 	1
scalar IntersectionExampleScenario.node[11].appl 	IntersectionEnterTime 	46.75
scalar IntersectionExampleScenario.node[11].appl 	IntersectionExitTime 	82.294209421671
scalar IntersectionExampleScenario.node[11].appl 	NumberOfCollisions 	0
scalar IntersectionExampleScenario.node[11].nic.phy80211p 	busyTime 	0
scalar IntersectionExampleScenario.node[11].nic.mac1609_4 	ReceivedUnicastPackets 	0
scalar IntersectionExampleScenario.node[11].nic.mac1609_4 	ReceivedBroadcasts 	0
scalar IntersectionExampleScenario.node[11].nic.mac1609_4 	SentPackets 	0
scalar IntersectionExampleScenario.node[11].nic.mac1609_4 	SNIRLostPackets 	0
scalar IntersectionExampleScenario.node[11].nic.mac1609_4 	RXTXLostPackets 	0
scalar IntersectionExampleScenario.node[11].nic.mac1609_4 	TotalLostPackets 	0
scalar IntersectionExampleScenario.node[11].nic.mac1609_4 	DroppedPacketsInMac 	0
scalar IntersectionExampleScenario.node[11].nic.mac1609_4 	TooLittleTime 	0
scalar IntersectionExampleScenario.node[11].nic.mac1609_4 	TimesIntoBackoff 	0
scalar IntersectionExampleScenario.node[11].nic.mac1609_4 	SlotsBackoff 	0
scalar IntersectionExampleScenario.node[11].nic.mac1609_4 	NumInternalContention 	0
scalar IntersectionExampleScenario.node[11].nic.mac1609_4 	totalBusyTime 	0
scalar IntersectionExampleScenario.node[11].veinsmobility 	startTime 	46.75
scalar IntersectionExampleScenario.node[11].veinsmobility 	totalTime 	51.75
scalar IntersectionExampleScenario.node[11].veinsmobility 	stopTime 	98.75
scalar IntersectionExampleScenario.node[11].veinsmobility 	minSpeed 	0
scalar IntersectionExampleScenario.node[11].veinsmobility 	maxSpeed 	15.375
scalar IntersectionExampleScenario.node[11].veinsmobility 	totalDistance 	552.79929351807
scalar IntersectionExampleScenario.node[11].veinsmobility 	totalCO2Emission 	142.01016206543
scalar IntersectionExampleScenario.node[13].appl 	VehicleRemoved 	0
scalar IntersectionExampleScenario.node[13].appl 	ArrivedAtDest 	1
scalar IntersectionExampleScenario.node[13].appl 	IntersectionEnterTime 	49.25
scalar IntersectionExampleScenario.node[13].appl 	IntersectionExitTime 	84.777624769311
scalar IntersectionExampleScenario.node[13].appl 	NumberOfCollisions 	0
scalar IntersectionExampleScenario.node[13].nic.phy80211p 	busyTime 	0
scalar IntersectionExampleScenario.node[13].nic.mac1609_4 	ReceivedUnicastPackets 	0
scalar IntersectionExampleScenario.node[13].nic.mac1609_4 	ReceivedBroadcasts 	0
scalar IntersectionExampleScenario.node[13].nic.mac1609_4 	SentPackets 	0
scalar IntersectionExampleScenario.node[13].nic.mac1609_4 	SNIRLostPackets 	0
scalar IntersectionExampleScenario.node[13].nic.mac1609_4 	RXTXLostPackets 	0
scalar IntersectionExampleScenario.node[13].nic.mac1609_4 	TotalLostPackets 	0
scalar IntersectionExampleScenario.node[13].nic.mac1609_4 	DroppedPacketsInMac 	0
scalar IntersectionExampleScenario.node[13].nic.mac1609_4 	TooLittleTime 	0
scalar IntersectionExampleScenario.node[13].nic.mac1609_4 	TimesIntoBackoff 	0
scalar IntersectionExampleScenario.node[13].nic.mac1609_4 	SlotsBackoff 	0
scalar IntersectionExampleScenario.node[13].nic.mac1609_4 	NumInternalContention 	0
scalar IntersectionExampleScenario.node[13].nic.mac1609_4 	totalBusyTime 	0
scalar IntersectionExampleScenario.node[13].veinsmobility 	startTime 	49.25
scalar IntersectionExampleScenario.node[13].veinsmobility 	totalTime 	51.75
scalar IntersectionExampleScenario.node[13].veinsmobility 	stopTime 	101.25
scalar IntersectionExampleScenario.node[13].veinsmobility 	minSpeed 	0
scalar IntersectionExampleScenario.node[13].veinsmobility 	maxSpeed 	15.5
scalar IntersectionExampleScenario.node[13].veinsmobility 	totalDistance 	569.27598571777
scalar IntersectionExampleScenario.node[13].veinsmobility 	totalCO2Emission 	141.45262548602
scalar IntersectionExampleScenario.node[16].appl 	VehicleRemoved 	0
scalar IntersectionExampleScenario.node[16].appl 	ArrivedAtDest 	1
scalar IntersectionExampleScenario.node[16].appl 	IntersectionEnterTime 	53.5
scalar IntersectionExampleScenario.node[16].appl 	IntersectionExitTime 	86.345241249859
scalar IntersectionExampleScenario.node[16].appl 	NumberOfCollisions 	0
scalar IntersectionExampleScenario.node[16].nic.phy80211p 	busyTime 	0
scalar IntersectionExampleScenario.node[16].nic.mac1609_4 	ReceivedUnicastPackets 	0
scalar IntersectionExampleScenario.node[16].nic.mac1609_4 	ReceivedBroadcasts 	0
scalar IntersectionExampleScenario.node[16].nic.mac1609_4 	SentPackets 	0
scalar IntersectionExampleScenario.node[16].nic.mac1609_4 	SNIRLostPackets 	0
scalar IntersectionExampleScenario.node[16].nic.mac1609_4 	RXTXLostPackets 	0
scalar IntersectionExampleScenario.node[16].nic.mac1609_4 	TotalLostPackets 	0
scalar IntersectionExampleScenario.node[16].nic.mac1609_4 	DroppedPacketsInMac 	0
scalar IntersectionExampleScenario.node[16].nic.mac1609_4 	TooLittleTime 	0
scalar IntersectionExampleScenario.node[16].nic.mac1609_4 	TimesIntoBackoff 	0
scalar IntersectionExampleScenario.node[16].nic.mac1609_4 	SlotsBackoff 	0
scalar IntersectionExampleScenario.node[16].nic.mac1609_4 	NumInternalContention 	0
scalar IntersectionExampleScenario.node[16].nic.mac1609_4 	totalBusyTime 	0
scalar IntersectionExampleScenario.node[16].veinsmobility 	startTime 	53.5
scalar IntersectionExampleScenario.node[16].veinsmobility 	totalTime 	48.5
scalar IntersectionExampleScenario.node[16].veinsmobility 	stopTime 	102.25
scalar IntersectionExampleScenario.node[16].veinsmobility 	minSpeed 	2.2756991386414
scalar IntersectionExampleScenario.node[16].veinsmobility 	maxSpeed 	16.5
scalar IntersectionExampleScenario.node[16].veinsmobility 	totalDistance 	556.73114178252
scalar IntersectionExampleScenario.node[16].veinsmobility 	totalCO2Emission 	148.68468497847
scalar IntersectionExampleScenario.node[19].appl 	VehicleRemoved 	0
scalar IntersectionExampleScenario.node[19].appl 	ArrivedAtDest 	1
scalar IntersectionExampleScenario.node[19].appl 	IntersectionEnterTime 	65.75
scalar IntersectionExampleScenario.node[19].appl 	IntersectionExitTime 	90.276616655261
scalar IntersectionExampleScenario.node[19].appl 	NumberOfCollisions 	0
scalar IntersectionExampleScenario.node[19].nic.phy80211p 	busyTime 	0
scalar IntersectionExampleScenario.node[19].nic.mac1609_4 	ReceivedUnicastPackets 	0
scalar IntersectionExampleScenario.node[19].nic.mac1609_4 	ReceivedBroadcasts 	0
scalar IntersectionExampleScenario.node[19].nic.mac1609_4 	SentPackets 	0
scalar IntersectionExampleScenario.node[19].nic.mac1609_4 	SNIRLostPackets 	0
scalar IntersectionExampleScenario.node[19].nic.mac1609_4 	RXTXLostPackets 	0
scalar IntersectionExampleScenario.node[19].nic.mac1609_4 	TotalLostPackets 	0
scalar IntersectionExampleScenario.node[19].nic.mac1609_4 	DroppedPacketsInMac 	0
scalar IntersectionExampleScenario.node[19].nic.mac1609_4 	TooLittleTime 	0
scalar IntersectionExampleScenario.node[19].nic.mac1609_4 	TimesIntoBackoff 	0
scalar IntersectionExampleScenario.node[19].nic.mac1609_4 	SlotsBackoff 	0
scalar IntersectionExampleScenario.node[19].nic.mac1609_4 	NumInternalContention 	0
scalar IntersectionExampleScenario.node[19].nic.mac1609_4 	totalBusyTime 	0
scalar IntersectionExampleScenario.node[19].veinsmobility 	startTime 	65.75
scalar IntersectionExampleScenario.node[19].veinsmobility 	totalTime 	39.75
scalar IntersectionExampleScenario.node[19].veinsmobility 	stopTime 	105.75
scalar IntersectionExampleScenario.node[19].veinsmobility 	minSpeed 	5.6500000953674
scalar IntersectionExampleScenario.node[19].veinsmobility 	maxSpeed 	16.134281158447
scalar IntersectionExampleScenario.node[19].veinsmobility 	totalDistance 	551.14108276367
scalar IntersectionExampleScenario.node[19].veinsmobility 	totalCO2Emission 	129.67258896506
scalar IntersectionExampleScenario.node[18].appl 	VehicleRemoved 	0
scalar IntersectionExampleScenario.node[18].appl 	ArrivedAtDest 	1
scalar IntersectionExampleScenario.node[18].appl 	IntersectionEnterTime 	56.75
scalar IntersectionExampleScenario.node[18].appl 	IntersectionExitTime 	88.865818343562
scalar IntersectionExampleScenario.node[18].appl 	NumberOfCollisions 	0
scalar IntersectionExampleScenario.node[18].nic.phy80211p 	busyTime 	0
scalar IntersectionExampleScenario.node[18].nic.mac1609_4 	ReceivedUnicastPackets 	0
scalar IntersectionExampleScenario.node[18].nic.mac1609_4 	ReceivedBroadcasts 	0
scalar IntersectionExampleScenario.node[18].nic.mac1609_4 	SentPackets 	0
scalar IntersectionExampleScenario.node[18].nic.mac1609_4 	SNIRLostPackets 	0
scalar IntersectionExampleScenario.node[18].nic.mac1609_4 	RXTXLostPackets 	0
scalar IntersectionExampleScenario.node[18].nic.mac1609_4 	TotalLostPackets 	0
scalar IntersectionExampleScenario.node[18].nic.mac1609_4 	DroppedPacketsInMac 	0
scalar IntersectionExampleScenario.node[18].nic.mac1609_4 	TooLittleTime 	0
scalar IntersectionExampleScenario.node[18].nic.mac1609_4 	TimesIntoBackoff 	0
scalar IntersectionExampleScenario.node[18].nic.mac1609_4 	SlotsBackoff 	0
scalar IntersectionExampleScenario.node[18].nic.mac1609_4 	NumInternalContention 	0
scalar IntersectionExampleScenario.node[18].nic.mac1609_4 	totalBusyTime 	0
scalar IntersectionExampleScenario.node[18].veinsmobility 	startTime 	56.75
scalar IntersectionExampleScenario.node[18].veinsmobility 	totalTime 	49
scalar IntersectionExampleScenario.node[18].veinsmobility 	stopTime 	106
scalar IntersectionExampleScenario.node[18].veinsmobility 	minSpeed 	3.5774512290955
scalar IntersectionExampleScenario.node[18].veinsmobility 	maxSpeed 	15.25
scalar IntersectionExampleScenario.node[18].veinsmobility 	totalDistance 	562.993395984
scalar IntersectionExampleScenario.node[18].veinsmobility 	totalCO2Emission 	137.0729850404
scalar IntersectionExampleScenario.node[21].appl 	VehicleRemoved 	0
scalar IntersectionExampleScenario.node[21].appl 	ArrivedAtDest 	1
scalar IntersectionExampleScenario.node[21].appl 	IntersectionEnterTime 	66.25
scalar IntersectionExampleScenario.node[21].appl 	IntersectionExitTime 	92.043858987774
scalar IntersectionExampleScenario.node[21].appl 	NumberOfCollisions 	0
scalar IntersectionExampleScenario.node[21].nic.phy80211p 	busyTime 	0
scalar IntersectionExampleScenario.node[21].nic.mac1609_4 	ReceivedUnicastPackets 	0
scalar IntersectionExampleScenario.node[21].nic.mac1609_4 	ReceivedBroadcasts 	0
scalar IntersectionExampleScenario.node[21].nic.mac1609_4 	SentPackets 	0
scalar IntersectionExampleScenario.node[21].nic.mac1609_4 	SNIRLostPackets 	0
scalar IntersectionExampleScenario.node[21].nic.mac1609_4 	RXTXLostPackets 	0
scalar IntersectionExampleScenario.node[21].nic.mac1609_4 	TotalLostPackets 	0
scalar IntersectionExampleScenario.node[21].nic.mac1609_4 	DroppedPacketsInMac 	0
scalar IntersectionExampleScenario.node[21].nic.mac1609_4 	TooLittleTime 	0
scalar IntersectionExampleScenario.node[21].nic.mac1609_4 	TimesIntoBackoff 	0
scalar IntersectionExampleScenario.node[21].nic.mac1609_4 	SlotsBackoff 	0
scalar IntersectionExampleScenario.node[21].nic.mac1609_4 	NumInternalContention 	0
scalar IntersectionExampleScenario.node[21].nic.mac1609_4 	totalBusyTime 	0
scalar IntersectionExampleScenario.node[21].veinsmobility 	startTime 	66.25
scalar IntersectionExampleScenario.node[21].veinsmobility 	totalTime 	41.5
scalar IntersectionExampleScenario.node[21].veinsmobility 	stopTime 	108
scalar IntersectionExampleScenario.node[21].veinsmobility 	minSpeed 	5.6500000953674
scalar IntersectionExampleScenario.node[21].veinsmobility 	maxSpeed 	16.625
scalar IntersectionExampleScenario.node[21].veinsmobility 	totalDistance 	575.91989918206
scalar IntersectionExampleScenario.node[21].veinsmobility 	totalCO2Emission 	132.39711758586
scalar IntersectionExampleScenario.node[20].appl 	VehicleRemoved 	0
scalar IntersectionExampleScenario.node[20].appl 	ArrivedAtDest 	1
scalar IntersectionExampleScenario.node[20].appl 	IntersectionEnterTime 	66
scalar IntersectionExampleScenario.node[20].appl 	IntersectionExitTime 	97.332775252755
scalar IntersectionExampleScenario.node[20].appl 	NumberOfCollisions 	0
scalar IntersectionExampleScenario.node[20].nic.phy80211p 	busyTime 	0
scalar IntersectionExampleScenario.node[20].nic.mac1609_4 	ReceivedUnicastPackets 	0
scalar IntersectionExampleScenario.node[20].nic.mac1609_4 	ReceivedBroadcasts 	0
scalar IntersectionExampleScenario.node[20].nic.mac1609_4 	SentPackets 	0
scalar IntersectionExampleScenario.node[20].nic.mac1609_4 	SNIRLostPackets 	0
scalar IntersectionExampleScenario.node[20].nic.mac1609_4 	RXTXLostPackets 	0
scalar IntersectionExampleScenario.node[20].nic.mac1609_4 	TotalLostPackets 	0
scalar IntersectionExampleScenario.node[20].nic.mac1609_4 	DroppedPacketsInMac 	0
scalar IntersectionExampleScenario.node[20].nic.mac1609_4 	TooLittleTime 	0
scalar IntersectionExampleScenario.node[20].nic.mac1609_4 	TimesIntoBackoff 	0
scalar IntersectionExampleScenario.node[20].nic.mac1609_4 	SlotsBackoff 	0
scalar IntersectionExampleScenario.node[20].nic.mac1609_4 	NumInternalContention 	0
scalar IntersectionExampleScenario.node[20].nic.mac1609_4 	totalBusyTime 	0
scalar IntersectionExampleScenario.node[20].veinsmobility 	startTime 	66
scalar IntersectionExampleScenario.node[20].veinsmobility 	totalTime 	47.5
scalar IntersectionExampleScenario.node[20].veinsmobility 	stopTime 	113.75
scalar IntersectionExampleScenario.node[20].veinsmobility 	minSpeed 	0
scalar IntersectionExampleScenario.node[20].veinsmobility 	maxSpeed 	15.375
scalar IntersectionExampleScenario.node[20].veinsmobility 	totalDistance 	548.18894304385
scalar IntersectionExampleScenario.node[20].veinsmobility 	totalCO2Emission 	137.14368773438
scalar IntersectionExampleScenario.node[22].appl 	VehicleRemoved 	0
scalar IntersectionExampleScenario.node[22].appl 	ArrivedAtDest 	1
scalar IntersectionExampleScenario.node[22].appl 	IntersectionEnterTime 	76.25
scalar IntersectionExampleScenario.node[22].appl 	IntersectionExitTime 	99.539157315361
scalar IntersectionExampleScenario.node[22].appl 	NumberOfCollisions 	0
scalar IntersectionExampleScenario.node[22].nic.phy80211p 	busyTime 	0
scalar IntersectionExampleScenario.node[22].nic.mac1609_4 	ReceivedUnicastPackets 	0
scalar IntersectionExampleScenario.node[22].nic.mac1609_4 	ReceivedBroadcasts 	0
scalar IntersectionExampleScenario.node[22].nic.mac1609_4 	SentPackets 	0
scalar IntersectionExampleScenario.node[22].nic.mac1609_4 	SNIRLostPackets 	0
scalar IntersectionExampleScenario.node[22].nic.mac1609_4 	RXTXLostPackets 	0
scalar IntersectionExampleScenario.node[22].nic.mac1609_4 	TotalLostPackets 	0
scalar IntersectionExampleScenario.node[22].nic.mac1609_4 	DroppedPacketsInMac 	0
scalar IntersectionExampleScenario.node[22].nic.mac1609_4 	TooLittleTime 	0
scalar IntersectionExampleScenario.node[22].nic.mac1609_4 	TimesIntoBackoff 	0
scalar IntersectionExampleScenario.node[22].nic.mac1609_4 	SlotsBackoff 	0
scalar IntersectionExampleScenario.node[22].nic.mac1609_4 	NumInternalContention 	0
scalar IntersectionExampleScenario.node[22].nic.mac1609_4 	totalBusyTime 	0
scalar IntersectionExampleScenario.node[22].veinsmobility 	startTime 	76.25
scalar IntersectionExampleScenario.node[22].veinsmobility 	totalTime 	40
scalar IntersectionExampleScenario.node[22].veinsmobility 	stopTime 	116.5
scalar IntersectionExampleScenario.node[22].veinsmobility 	minSpeed 	5.6500000953674
scalar IntersectionExampleScenario.node[22].veinsmobility 	maxSpeed 	15.64999961853
scalar IntersectionExampleScenario.node[22].veinsmobility 	totalDistance 	545.00955562442
scalar IntersectionExampleScenario.node[22].veinsmobility 	totalCO2Emission 	126.68832566787
scalar IntersectionExampleScenario.node[24].appl 	VehicleRemoved 	0
scalar IntersectionExampleScenario.node[24].appl 	ArrivedAtDest 	1
scalar IntersectionExampleScenario.node[24].appl 	IntersectionEnterTime 	87.25
scalar IntersectionExampleScenario.node[24].appl 	IntersectionExitTime 	110.27130964151
scalar IntersectionExampleScenario.node[24].appl 	NumberOfCollisions 	0
scalar IntersectionExampleScenario.node[24].nic.phy80211p 	busyTime 	0
scalar IntersectionExampleScenario.node[24].nic.mac1609_4 	ReceivedUnicastPackets 	0
scalar IntersectionExampleScenario.node[24].nic.mac1609_4 	ReceivedBroadcasts 	0
scalar IntersectionExampleScenario.node[24].nic.mac1609_4 	SentPackets 	0
scalar IntersectionExampleScenario.node[24].nic.mac1609_4 	SNIRLostPackets 	0
scalar IntersectionExampleScenario.node[24].nic.mac1609_4 	RXTXLostPackets 	0
scalar IntersectionExampleScenario.node[24].nic.mac1609_4 	TotalLostPackets 	0
scalar IntersectionExampleScenario.node[24].nic.mac1609_4 	DroppedPacketsInMac 	0
scalar IntersectionExampleScenario.node[24].nic.mac1609_4 	TooLittleTime 	0
scalar IntersectionExampleScenario.node[24].nic.mac1609_4 	TimesIntoBackoff 	0
scalar IntersectionExampleScenario.node[24].nic.mac1609_4 	SlotsBackoff 	0
scalar IntersectionExampleScenario.node[24].nic.mac1609_4 	NumInternalContention 	0
scalar IntersectionExampleScenario.node[24].nic.mac1609_4 	totalBusyTime 	0
scalar IntersectionExampleScenario.node[24].veinsmobility 	startTime 	87.25
scalar IntersectionExampleScenario.node[24].veinsmobility 	totalTime 	39
scalar IntersectionExampleScenario.node[24].veinsmobility 	stopTime 	126.5
scalar IntersectionExampleScenario.node[24].veinsmobility 	minSpeed 	5.6500000953674
scalar IntersectionExampleScenario.node[24].veinsmobility 	maxSpeed 	16
scalar IntersectionExampleScenario.node[24].veinsmobility 	totalDistance 	551.94977433873
scalar IntersectionExampleScenario.node[24].veinsmobility 	totalCO2Emission 	125.13138713895
scalar IntersectionExampleScenario.node[23].appl 	VehicleRemoved 	0
scalar IntersectionExampleScenario.node[23].appl 	ArrivedAtDest 	1
scalar IntersectionExampleScenario.node[23].appl 	IntersectionEnterTime 	85
scalar IntersectionExampleScenario.node[23].appl 	IntersectionExitTime 	112.52682946849
scalar IntersectionExampleScenario.node[23].appl 	NumberOfCollisions 	0
scalar IntersectionExampleScenario.node[23].nic.phy80211p 	busyTime 	0
scalar IntersectionExampleScenario.node[23].nic.mac1609_4 	ReceivedUnicastPackets 	0
scalar IntersectionExampleScenario.node[23].nic.mac1609_4 	ReceivedBroadcasts 	0
scalar IntersectionExampleScenario.node[23].nic.mac1609_4 	SentPackets 	0
scalar IntersectionExampleScenario.node[23].nic.mac1609_4 	SNIRLostPackets 	0
scalar IntersectionExampleScenario.node[23].nic.mac1609_4 	RXTXLostPackets 	0
scalar IntersectionExampleScenario.node[23].nic.mac1609_4 	TotalLostPackets 	0
scalar IntersectionExampleScenario.node[23].nic.mac1609_4 	DroppedPacketsInMac 	0
scalar IntersectionExampleScenario.node[23].nic.mac1609_4 	TooLittleTime 	0
scalar IntersectionExampleScenario.node[23].nic.mac1609_4 	TimesIntoBackoff 	0
scalar IntersectionExampleScenario.node[23].nic.mac1609_4 	SlotsBackoff 	0
scalar IntersectionExampleScenario.node[23].nic.mac1609_4 	NumInternalContention 	0
scalar IntersectionExampleScenario.node[23].nic.mac1609_4 	totalBusyTime 	0
scalar IntersectionExampleScenario.node[23].veinsmobility 	startTime 	85
scalar IntersectionExampleScenario.node[23].veinsmobility 	totalTime 	43.25
scalar IntersectionExampleScenario.node[23].veinsmobility 	stopTime 	128.5
scalar IntersectionExampleScenario.node[23].veinsmobility 	minSpeed 	0
scalar IntersectionExampleScenario.node[23].veinsmobility 	maxSpeed 	16.553215026855
scalar IntersectionExampleScenario.node[23].veinsmobility 	totalDistance 	543.2197866574
scalar IntersectionExampleScenario.node[23].veinsmobility 	totalCO2Emission 	144.82794816699
scalar IntersectionExampleScenario.node[26].appl 	VehicleRemoved 	0
scalar IntersectionExampleScenario.node[26].appl 	ArrivedAtDest 	1
scalar IntersectionExampleScenario.node[26].appl 	IntersectionEnterTime 	95
scalar IntersectionExampleScenario.node[26].appl 	IntersectionExitTime 	118.02760473962
scalar IntersectionExampleScenario.node[26].appl 	NumberOfCollisions 	0
scalar IntersectionExampleScenario.node[26].nic.phy80211p 	busyTime 	0
scalar IntersectionExampleScenario.node[26].nic.mac1609_4 	ReceivedUnicastPackets 	0
scalar IntersectionExampleScenario.node[26].nic.mac1609_4 	ReceivedBroadcasts 	0
scalar IntersectionExampleScenario.node[26].nic.mac1609_4 	SentPackets 	0
scalar IntersectionExampleScenario.node[26].nic.mac1609_4 	SNIRLostPackets 	0
scalar IntersectionExampleScenario.node[26].nic.mac1609_4 	RXTXLostPackets 	0
scalar IntersectionExampleScenario.node[26].nic.mac1609_4 	TotalLostPackets 	0
scalar IntersectionExampleScenario.node[26].nic.mac1609_4 	DroppedPacketsInMac 	0
scalar IntersectionExampleScenario.node[26].nic.mac1609_4 	TooLittleTime 	0
scalar IntersectionExampleScenario.node[26].nic.mac1609_4 	TimesIntoBackoff 	0
scalar IntersectionExampleScenario.node[26].nic.mac1609_4 	SlotsBackoff 	0
scalar IntersectionExampleScenario.node[26].nic.mac1609_4 	NumInternalContention 	0
scalar IntersectionExampleScenario.node[26].nic.mac1609_4 	totalBusyTime 	0
scalar IntersectionExampleScenario.node[26].veinsmobility 	startTime 	95
scalar IntersectionExampleScenario.node[26].veinsmobility 	totalTime 	39
scalar IntersectionExampleScenario.node[26].veinsmobility 	stopTime 	134.25
scalar IntersectionExampleScenario.node[26].veinsmobility 	minSpeed 	5.6500000953674
scalar IntersectionExampleScenario.node[26].veinsmobility 	maxSpeed 	16.27499961853
scalar IntersectionExampleScenario.node[26].veinsmobility 	totalDistance 	552.17350908352
scalar IntersectionExampleScenario.node[26].veinsmobility 	totalCO2Emission 	132.79367122945
scalar IntersectionExampleScenario.node[27].appl 	VehicleRemoved 	0
scalar IntersectionExampleScenario.node[27].appl 	ArrivedAtDest 	1
scalar IntersectionExampleScenario.node[27].appl 	IntersectionEnterTime 	99.5
scalar IntersectionExampleScenario.node[27].appl 	IntersectionExitTime 	122.03297231579
scalar IntersectionExampleScenario.node[27].appl 	NumberOfCollisions 	0
scalar IntersectionExampleScenario.node[27].nic.phy80211p 	busyTime 	0
scalar IntersectionExampleScenario.node[27].nic.mac1609_4 	ReceivedUnicastPackets 	0
scalar IntersectionExampleScenario.node[27].nic.mac1609_4 	ReceivedBroadcasts 	0
scalar IntersectionExampleScenario.node[27].nic.mac1609_4 	SentPackets 	0
scalar IntersectionExampleScenario.node[27].nic.mac1609_4 	SNIRLostPackets 	0
scalar IntersectionExampleScenario.node[27].nic.mac1609_4 	RXTXLostPackets 	0
scalar IntersectionExampleScenario.node[27].nic.mac1609_4 	TotalLostPackets 	0
scalar IntersectionExampleScenario.node[27].nic.mac1609_4 	DroppedPacketsInMac 	0
scalar IntersectionExampleScenario.node[27].nic.mac1609_4 	TooLittleTime 	0
scalar IntersectionExampleScenario.node[27].nic.mac1609_4 	TimesIntoBackoff 	0
scalar IntersectionExampleScenario.node[27].nic.mac1609_4 	SlotsBackoff 	0
scalar IntersectionExampleScenario.node[27].nic.mac1609_4 	NumInternalContention 	0
scalar IntersectionExampleScenario.node[27].nic.mac1609_4 	totalBusyTime 	0
scalar IntersectionExampleScenario.node[27].veinsmobility 	startTime 	99.5
scalar IntersectionExampleScenario.node[27].veinsmobility 	totalTime 	38
scalar IntersectionExampleScenario.node[27].veinsmobility 	stopTime 	137.75
scalar IntersectionExampleScenario.node[27].veinsmobility 	minSpeed 	5.6500000953674
scalar IntersectionExampleScenario.node[27].veinsmobility 	maxSpeed 	16.125
scalar IntersectionExampleScenario.node[27].veinsmobility 	totalDistance 	551.6651763916
scalar IntersectionExampleScenario.node[27].veinsmobility 	totalCO2Emission 	119.99297835631
scalar IntersectionExampleScenario.node[25].appl 	VehicleRemoved 	0
scalar IntersectionExampleScenario.node[25].appl 	ArrivedAtDest 	1
scalar IntersectionExampleScenario.node[25].appl 	IntersectionEnterTime 	94
scalar IntersectionExampleScenario.node[25].appl 	IntersectionExitTime 	127.60861457876
scalar IntersectionExampleScenario.node[25].appl 	NumberOfCollisions 	0
scalar IntersectionExampleScenario.node[25].nic.phy80211p 	busyTime 	0
scalar IntersectionExampleScenario.node[25].nic.mac1609_4 	ReceivedUnicastPackets 	0
scalar IntersectionExampleScenario.node[25].nic.mac1609_4 	ReceivedBroadcasts 	0
scalar IntersectionExampleScenario.node[25].nic.mac1609_4 	SentPackets 	0
scalar IntersectionExampleScenario.node[25].nic.mac1609_4 	SNIRLostPackets 	0
scalar IntersectionExampleScenario.node[25].nic.mac1609_4 	RXTXLostPackets 	0
scalar IntersectionExampleScenario.node[25].nic.mac1609_4 	TotalLostPackets 	0
scalar IntersectionExampleScenario.node[25].nic.mac1609_4 	DroppedPacketsInMac 	0
scalar IntersectionExampleScenario.node[25].nic.mac1609_4 	TooLittleTime 	0
scalar IntersectionExampleScenario.node[25].nic.mac1609_4 	TimesIntoBackoff 	0
scalar IntersectionExampleScenario.node[25].nic.mac1609_4 	SlotsBackoff 	0
scalar IntersectionExampleScenario.node[25].nic.mac1609_4 	NumInternalContention 	0
scalar IntersectionExampleScenario.node[25].nic.mac1609_4 	totalBusyTime 	0
scalar IntersectionExampleScenario.node[25].veinsmobility 	startTime 	94
scalar IntersectionExampleScenario.node[25].veinsmobility 	totalTime 	50
scalar IntersectionExampleScenario.node[25].veinsmobility 	stopTime 	144.25
scalar IntersectionExampleScenario.node[25].veinsmobility 	minSpeed 	0
scalar IntersectionExampleScenario.node[25].veinsmobility 	maxSpeed 	15.875
scalar IntersectionExampleScenario.node[25].veinsmobility 	totalDistance 	545.34079648406
scalar IntersectionExampleScenario.node[25].veinsmobility 	totalCO2Emission 	144.67162286764
scalar IntersectionExampleScenario.node[28].appl 	VehicleRemoved 	0
scalar IntersectionExampleScenario.node[28].appl 	ArrivedAtDest 	1
scalar IntersectionExampleScenario.node[28].appl 	IntersectionEnterTime 	102.5
scalar IntersectionExampleScenario.node[28].appl 	IntersectionExitTime 	129.32605527059
scalar IntersectionExampleScenario.node[28].appl 	NumberOfCollisions 	0
scalar IntersectionExampleScenario.node[28].nic.phy80211p 	busyTime 	0
scalar IntersectionExampleScenario.node[28].nic.mac1609_4 	ReceivedUnicastPackets 	0
scalar IntersectionExampleScenario.node[28].nic.mac1609_4 	ReceivedBroadcasts 	0
scalar IntersectionExampleScenario.node[28].nic.mac1609_4 	SentPackets 	0
scalar IntersectionExampleScenario.node[28].nic.mac1609_4 	SNIRLostPackets 	0
scalar IntersectionExampleScenario.node[28].nic.mac1609_4 	RXTXLostPackets 	0
scalar IntersectionExampleScenario.node[28].nic.mac1609_4 	TotalLostPackets 	0
scalar IntersectionExampleScenario.node[28].nic.mac1609_4 	DroppedPacketsInMac 	0
scalar IntersectionExampleScenario.node[28].nic.mac1609_4 	TooLittleTime 	0
scalar IntersectionExampleScenario.node[28].nic.mac1609_4 	TimesIntoBackoff 	0
scalar IntersectionExampleScenario.node[28].nic.mac1609_4 	SlotsBackoff 	0
scalar IntersectionExampleScenario.node[28].nic.mac1609_4 	NumInternalContention 	0
scalar IntersectionExampleScenario.node[28].nic.mac1609_4 	totalBusyTime 	0
scalar IntersectionExampleScenario.node[28].veinsmobility 	startTime 	102.5
scalar IntersectionExampleScenario.node[28].veinsmobility 	totalTime 	42.75
scalar IntersectionExampleScenario.node[28].veinsmobility 	stopTime 	145.5
scalar IntersectionExampleScenario.node[28].veinsmobility 	minSpeed 	0
scalar IntersectionExampleScenario.node[28].veinsmobility 	maxSpeed 	16.27499961853
scalar IntersectionExampleScenario.node[28].veinsmobility 	totalDistance 	549.32744743052
scalar IntersectionExampleScenario.node[28].veinsmobility 	totalCO2Emission 	139.35494791348
scalar IntersectionExampleScenario.node[30].appl 	VehicleRemoved 	0
scalar IntersectionExampleScenario.node[30].appl 	ArrivedAtDest 	1
scalar IntersectionExampleScenario.node[30].appl 	IntersectionEnterTime 	108.5
scalar IntersectionExampleScenario.node[30].appl 	IntersectionExitTime 	131.7846799019
scalar IntersectionExampleScenario.node[30].appl 	NumberOfCollisions 	0
scalar IntersectionExampleScenario.node[30].nic.phy80211p 	busyTime 	0
scalar IntersectionExampleScenario.node[30].nic.mac1609_4 	ReceivedUnicastPackets 	0
scalar IntersectionExampleScenario.node[30].nic.mac1609_4 	ReceivedBroadcasts 	0
scalar IntersectionExampleScenario.node[30].nic.mac1609_4 	SentPackets 	0
scalar IntersectionExampleScenario.node[30].nic.mac1609_4 	SNIRLostPackets 	0
scalar IntersectionExampleScenario.node[30].nic.mac1609_4 	RXTXLostPackets 	0
scalar IntersectionExampleScenario.node[30].nic.mac1609_4 	TotalLostPackets 	0
scalar IntersectionExampleScenario.node[30].nic.mac1609_4 	DroppedPacketsInMac 	0
scalar IntersectionExampleScenario.node[30].nic.mac1609_4 	TooLittleTime 	0
scalar IntersectionExampleScenario.node[30].nic.mac1609_4 	TimesIntoBackoff 	0
scalar IntersectionExampleScenario.node[30].nic.mac1609_4 	SlotsBackoff 	0
scalar IntersectionExampleScenario.node[30].nic.mac1609_4 	NumInternalContention 	0
scalar IntersectionExampleScenario.node[30].nic.mac1609_4 	totalBusyTime 	0
scalar IntersectionExampleScenario.node[30].veinsmobility 	startTime 	108.5
scalar IntersectionExampleScenario.node[30].veinsmobility 	totalTime 	39.5
scalar IntersectionExampleScenario.node[30].veinsmobility 	stopTime 	148.25
scalar IntersectionExampleScenario.node[30].veinsmobility 	minSpeed 	5.6500000953674
scalar IntersectionExampleScenario.node[30].veinsmobility 	maxSpeed 	15.5
scalar IntersectionExampleScenario.node[30].veinsmobility 	totalDistance 	552.69480895996
scalar IntersectionExampleScenario.node[30].veinsmobility 	totalCO2Emission 	123.97496140225
scalar IntersectionExampleScenario.node[31].appl 	VehicleRemoved 	0
scalar IntersectionExampleScenario.node[31].appl 	ArrivedAtDest 	1
scalar IntersectionExampleScenario.node[31].appl 	IntersectionEnterTime 	114
scalar IntersectionExampleScenario.node[31].appl 	IntersectionExitTime 	143.52659592137
scalar IntersectionExampleScenario.node[31].appl 	NumberOfCollisions 	0
scalar IntersectionExampleScenario.node[31].nic.phy80211p 	busyTime 	0
scalar IntersectionExampleScenario.node[31].nic.mac1609_4 	ReceivedUnicastPackets 	0
scalar IntersectionExampleScenario.node[31].nic.mac1609_4 	ReceivedBroadcasts 	0
scalar IntersectionExampleScenario.node[31].nic.mac1609_4 	SentPackets 	0
scalar IntersectionExampleScenario.node[31].nic.mac1609_4 	SNIRLostPackets 	0
scalar IntersectionExampleScenario.node[31].nic.mac1609_4 	RXTXLostPackets 	0
scalar IntersectionExampleScenario.node[31].nic.mac1609_4 	TotalLostPackets 	0
scalar IntersectionExampleScenario.node[31].nic.mac1609_4 	DroppedPacketsInMac 	0
scalar IntersectionExampleScenario.node[31].nic.mac1609_4 	TooLittleTime 	0
scalar IntersectionExampleScenario.node[31].nic.mac1609_4 	TimesIntoBackoff 	0
scalar IntersectionExampleScenario.node[31].nic.mac1609_4 	SlotsBackoff 	0
scalar IntersectionExampleScenario.node[31].nic.mac1609_4 	NumInternalContention 	0
scalar IntersectionExampleScenario.node[31].nic.mac1609_4 	totalBusyTime 	0
scalar IntersectionExampleScenario.node[31].veinsmobility 	startTime 	114
scalar IntersectionExampleScenario.node[31].veinsmobility 	totalTime 	46
scalar IntersectionExampleScenario.node[31].veinsmobility 	stopTime 	160.25
scalar IntersectionExampleScenario.node[31].veinsmobility 	minSpeed 	0
scalar IntersectionExampleScenario.node[31].veinsmobility 	maxSpeed 	15.875
scalar IntersectionExampleScenario.node[31].veinsmobility 	totalDistance 	545.8471517697
scalar IntersectionExampleScenario.node[31].veinsmobility 	totalCO2Emission 	141.21723147963
scalar IntersectionExampleScenario.node[29].appl 	VehicleRemoved 	0
scalar IntersectionExampleScenario.node[29].appl 	ArrivedAtDest 	1
scalar IntersectionExampleScenario.node[29].appl 	IntersectionEnterTime 	103.75
scalar IntersectionExampleScenario.node[29].appl 	IntersectionExitTime 	144.32390716948
scalar IntersectionExampleScenario.node[29].appl 	NumberOfCollisions 	0
scalar IntersectionExampleScenario.node[29].nic.phy80211p 	busyTime 	0
scalar IntersectionExampleScenario.node[29].nic.mac1609_4 	ReceivedUnicastPackets 	0
scalar IntersectionExampleScenario.node[29].nic.mac1609_4 	ReceivedBroadcasts 	0
scalar IntersectionExampleScenario.node[29].nic.mac1609_4 	SentPackets 	0
scalar IntersectionExampleScenario.node[29].nic.mac1609_4 	SNIRLostPackets 	0
scalar IntersectionExampleScenario.node[29].nic.mac1609_4 	RXTXLostPackets 	0
scalar IntersectionExampleScenario.node[29].nic.mac1609_4 	TotalLostPackets 	0
scalar IntersectionExampleScenario.node[29].nic.mac1609_4 	DroppedPacketsInMac 	0
scalar IntersectionExampleScenario.node[29].nic.mac1609_4 	TooLittleTime 	0
scalar IntersectionExampleScenario.node[29].nic.mac1609_4 	TimesIntoBackoff 	0
scalar IntersectionExampleScenario.node[29].nic.mac1609_4 	SlotsBackoff 	0
scalar IntersectionExampleScenario.node[29].nic.mac1609_4 	NumInternalContention 	0
scalar IntersectionExampleScenario.node[29].nic.mac1609_4 	totalBusyTime 	0
scalar IntersectionExampleScenario.node[29].veinsmobility 	startTime 	103.75
scalar IntersectionExampleScenario.node[29].veinsmobility 	totalTime 	56.75
scalar IntersectionExampleScenario.node[29].veinsmobility 	stopTime 	160.75
scalar IntersectionExampleScenario.node[29].veinsmobility 	minSpeed 	0
scalar IntersectionExampleScenario.node[29].veinsmobility 	maxSpeed 	15.375
scalar IntersectionExampleScenario.node[29].veinsmobility 	totalDistance 	558.31973266602
scalar IntersectionExampleScenario.node[29].veinsmobility 	totalCO2Emission 	149.42271299795
scalar IntersectionExampleScenario.node[33].appl 	VehicleRemoved 	0
scalar IntersectionExampleScenario.node[33].appl 	ArrivedAtDest 	1
scalar IntersectionExampleScenario.node[33].appl 	IntersectionEnterTime 	122.5
scalar IntersectionExampleScenario.node[33].appl 	IntersectionExitTime 	147.28422973369
scalar IntersectionExampleScenario.node[33].appl 	NumberOfCollisions 	0
scalar IntersectionExampleScenario.node[33].nic.phy80211p 	busyTime 	0
scalar IntersectionExampleScenario.node[33].nic.mac1609_4 	ReceivedUnicastPackets 	0
scalar IntersectionExampleScenario.node[33].nic.mac1609_4 	ReceivedBroadcasts 	0
scalar IntersectionExampleScenario.node[33].nic.mac1609_4 	SentPackets 	0
scalar IntersectionExampleScenario.node[33].nic.mac1609_4 	SNIRLostPackets 	0
scalar IntersectionExampleScenario.node[33].nic.mac1609_4 	RXTXLostPackets 	0
scalar IntersectionExampleScenario.node[33].nic.mac1609_4 	TotalLostPackets 	0
scalar IntersectionExampleScenario.node[33].nic.mac1609_4 	DroppedPacketsInMac 	0
scalar IntersectionExampleScenario.node[33].nic.mac1609_4 	TooLittleTime 	0
scalar IntersectionExampleScenario.node[33].nic.mac1609_4 	TimesIntoBackoff 	0
scalar IntersectionExampleScenario.node[33].nic.mac1609_4 	SlotsBackoff 	0
scalar IntersectionExampleScenario.node[33].nic.mac1609_4 	NumInternalContention 	0
scalar IntersectionExampleScenario.node[33].nic.mac1609_4 	totalBusyTime 	0
scalar IntersectionExampleScenario.node[33].veinsmobility 	startTime 	122.5
scalar IntersectionExampleScenario.node[33].veinsmobility 	totalTime 	41.5
scalar IntersectionExampleScenario.node[33].veinsmobility 	stopTime 	164.25
scalar IntersectionExampleScenario.node[33].veinsmobility 	minSpeed 	5.6500000953674
scalar IntersectionExampleScenario.node[33].veinsmobility 	maxSpeed 	15.375
scalar IntersectionExampleScenario.node[33].veinsmobility 	totalDistance 	552.59083349967
scalar IntersectionExampleScenario.node[33].veinsmobility 	totalCO2Emission 	134.45599035907
scalar IntersectionExampleScenario.node[35].appl 	VehicleRemoved 	0
scalar IntersectionExampleScenario.node[35].appl 	ArrivedAtDest 	1
scalar IntersectionExampleScenario.node[35].appl 	IntersectionEnterTime 	130
scalar IntersectionExampleScenario.node[35].appl 	IntersectionExitTime 	152.27741124661
scalar IntersectionExampleScenario.node[35].appl 	NumberOfCollisions 	0
scalar IntersectionExampleScenario.node[35].nic.phy80211p 	busyTime 	0
scalar IntersectionExampleScenario.node[35].nic.mac1609_4 	ReceivedUnicastPackets 	0
scalar IntersectionExampleScenario.node[35].nic.mac1609_4 	ReceivedBroadcasts 	0
scalar IntersectionExampleScenario.node[35].nic.mac1609_4 	SentPackets 	0
scalar IntersectionExampleScenario.node[35].nic.mac1609_4 	SNIRLostPackets 	0
scalar IntersectionExampleScenario.node[35].nic.mac1609_4 	RXTXLostPackets 	0
scalar IntersectionExampleScenario.node[35].nic.mac1609_4 	TotalLostPackets 	0
scalar IntersectionExampleScenario.node[35].nic.mac1609_4 	DroppedPacketsInMac 	0
scalar IntersectionExampleScenario.node[35].nic.mac1609_4 	TooLittleTime 	0
scalar IntersectionExampleScenario.node[35].nic.mac1609_4 	TimesIntoBackoff 	0
scalar IntersectionExampleScenario.node[35].nic.mac1609_4 	SlotsBackoff 	0
scalar IntersectionExampleScenario.node[35].nic.mac1609_4 	NumInternalContention 	0
scalar IntersectionExampleScenario.node[35].nic.mac1609_4 	totalBusyTime 	0
scalar IntersectionExampleScenario.node[35].veinsmobility 	startTime 	130
scalar IntersectionExampleScenario.node[35].veinsmobility 	totalTime 	37.5
scalar IntersectionExampleScenario.node[35].veinsmobility 	stopTime 	167.75
scalar IntersectionExampleScenario.node[35].veinsmobility 	minSpeed 	5.6500000953674
scalar IntersectionExampleScenario.node[35].veinsmobility 	maxSpeed 	16.27499961853
scalar IntersectionExampleScenario.node[35].veinsmobility 	totalDistance 	551.9393081665
scalar IntersectionExampleScenario.node[35].veinsmobility 	totalCO2Emission 	122.15621062424
scalar IntersectionExampleScenario.node[32].appl 	VehicleRemoved 	0
scalar IntersectionExampleScenario.node[32].appl 	ArrivedAtDest 	1
scalar IntersectionExampleScenario.node[32].appl 	IntersectionEnterTime 	121.75
scalar IntersectionExampleScenario.node[32].appl 	IntersectionExitTime 	158.5643573959
scalar IntersectionExampleScenario.node[32].appl 	NumberOfCollisions 	0
scalar IntersectionExampleScenario.node[32].nic.phy80211p 	busyTime 	0
scalar IntersectionExampleScenario.node[32].nic.mac1609_4 	ReceivedUnicastPackets 	0
scalar IntersectionExampleScenario.node[32].nic.mac1609_4 	ReceivedBroadcasts 	0
scalar IntersectionExampleScenario.node[32].nic.mac1609_4 	SentPackets 	0
scalar IntersectionExampleScenario.node[32].nic.mac1609_4 	SNIRLostPackets 	0
scalar IntersectionExampleScenario.node[32].nic.mac1609_4 	RXTXLostPackets 	0
scalar IntersectionExampleScenario.node[32].nic.mac1609_4 	TotalLostPackets 	0
scalar IntersectionExampleScenario.node[32].nic.mac1609_4 	DroppedPacketsInMac 	0
scalar IntersectionExampleScenario.node[32].nic.mac1609_4 	TooLittleTime 	0
scalar IntersectionExampleScenario.node[32].nic.mac1609_4 	TimesIntoBackoff 	0
scalar IntersectionExampleScenario.node[32].nic.mac1609_4 	SlotsBackoff 	0
scalar IntersectionExampleScenario.node[32].nic.mac1609_4 	NumInternalContention 	0
scalar IntersectionExampleScenario.node[32].nic.mac1609_4 	totalBusyTime 	0
scalar IntersectionExampleScenario.node[32].veinsmobility 	startTime 	121.75
scalar IntersectionExampleScenario.node[32].veinsmobility 	totalTime 	53.25
scalar IntersectionExampleScenario.node[32].veinsmobility 	stopTime 	175.25
scalar IntersectionExampleScenario.node[32].veinsmobility 	minSpeed 	0
scalar IntersectionExampleScenario.node[32].veinsmobility 	maxSpeed 	15.875
scalar IntersectionExampleScenario.node[32].veinsmobility 	totalDistance 	543.3152151242
scalar IntersectionExampleScenario.node[32].veinsmobility 	totalCO2Emission 	147.16251514512
scalar IntersectionExampleScenario.node[36].appl 	VehicleRemoved 	0
scalar IntersectionExampleScenario.node[36].appl 	ArrivedAtDest 	1
scalar IntersectionExampleScenario.node[36].appl 	IntersectionEnterTime 	133.5
scalar IntersectionExampleScenario.node[36].appl 	IntersectionExitTime 	161.07790904163
scalar IntersectionExampleScenario.node[36].appl 	NumberOfCollisions 	0
scalar IntersectionExampleScenario.node[36].nic.phy80211p 	busyTime 	0
scalar IntersectionExampleScenario.node[36].nic.mac1609_4 	ReceivedUnicastPackets 	0
scalar IntersectionExampleScenario.node[36].nic.mac1609_4 	ReceivedBroadcasts 	0
scalar IntersectionExampleScenario.node[36].nic.mac1609_4 	SentPackets 	0
scalar IntersectionExampleScenario.node[36].nic.mac1609_4 	SNIRLostPackets 	0
scalar IntersectionExampleScenario.node[36].nic.mac1609_4 	RXTXLostPackets 	0
scalar IntersectionExampleScenario.node[36].nic.mac1609_4 	TotalLostPackets 	0
scalar IntersectionExampleScenario.node[36].nic.mac1609_4 	DroppedPacketsInMac 	0
scalar IntersectionExampleScenario.node[36].nic.mac1609_4 	TooLittleTime 	0
scalar IntersectionExampleScenario.node[36].nic.mac1609_4 	TimesIntoBackoff 	0
scalar IntersectionExampleScenario.node[36].nic.mac1609_4 	SlotsBackoff 	0
scalar IntersectionExampleScenario.node[36].nic.mac1609_4 	NumInternalContention 	0
scalar IntersectionExampleScenario.node[36].nic.mac1609_4 	totalBusyTime 	0
scalar IntersectionExampleScenario.node[36].veinsmobility 	startTime 	133.5
scalar IntersectionExampleScenario.node[36].veinsmobility 	totalTime 	43.5
scalar IntersectionExampleScenario.node[36].veinsmobility 	stopTime 	177.25
scalar IntersectionExampleScenario.node[36].veinsmobility 	minSpeed 	4.5728459358215
scalar IntersectionExampleScenario.node[36].veinsmobility 	maxSpeed 	15.64999961853
scalar IntersectionExampleScenario.node[36].veinsmobility 	totalDistance 	551.53562164307
scalar IntersectionExampleScenario.node[36].veinsmobility 	totalCO2Emission 	131.82312911479
scalar IntersectionExampleScenario.node[34].appl 	VehicleRemoved 	0
scalar IntersectionExampleScenario.node[34].appl 	ArrivedAtDest 	1
scalar IntersectionExampleScenario.node[34].appl 	IntersectionEnterTime 	128.75
scalar IntersectionExampleScenario.node[34].appl 	IntersectionExitTime 	161.01815129461
scalar IntersectionExampleScenario.node[34].appl 	NumberOfCollisions 	0
scalar IntersectionExampleScenario.node[34].nic.phy80211p 	busyTime 	0
scalar IntersectionExampleScenario.node[34].nic.mac1609_4 	ReceivedUnicastPackets 	0
scalar IntersectionExampleScenario.node[34].nic.mac1609_4 	ReceivedBroadcasts 	0
scalar IntersectionExampleScenario.node[34].nic.mac1609_4 	SentPackets 	0
scalar IntersectionExampleScenario.node[34].nic.mac1609_4 	SNIRLostPackets 	0
scalar IntersectionExampleScenario.node[34].nic.mac1609_4 	RXTXLostPackets 	0
scalar IntersectionExampleScenario.node[34].nic.mac1609_4 	TotalLostPackets 	0
scalar IntersectionExampleScenario.node[34].nic.mac1609_4 	DroppedPacketsInMac 	0
scalar IntersectionExampleScenario.node[34].nic.mac1609_4 	TooLittleTime 	0
scalar IntersectionExampleScenario.node[34].nic.mac1609_4 	TimesIntoBackoff 	0
scalar IntersectionExampleScenario.node[34].nic.mac1609_4 	SlotsBackoff 	0
scalar IntersectionExampleScenario.node[34].nic.mac1609_4 	NumInternalContention 	0
scalar IntersectionExampleScenario.node[34].nic.mac1609_4 	totalBusyTime 	0
scalar IntersectionExampleScenario.node[34].veinsmobility 	startTime 	128.75
scalar IntersectionExampleScenario.node[34].veinsmobility 	totalTime 	48.5
scalar IntersectionExampleScenario.node[34].veinsmobility 	stopTime 	177.5
scalar IntersectionExampleScenario.node[34].veinsmobility 	minSpeed 	0
scalar IntersectionExampleScenario.node[34].veinsmobility 	maxSpeed 	15.64999961853
scalar IntersectionExampleScenario.node[34].veinsmobility 	totalDistance 	549.07467586256
scalar IntersectionExampleScenario.node[34].veinsmobility 	totalCO2Emission 	141.25577894083
scalar IntersectionExampleScenario.node[38].appl 	VehicleRemoved 	0
scalar IntersectionExampleScenario.node[38].appl 	ArrivedAtDest 	1
scalar IntersectionExampleScenario.node[38].appl 	IntersectionEnterTime 	136.5
scalar IntersectionExampleScenario.node[38].appl 	IntersectionExitTime 	162.36383193961
scalar IntersectionExampleScenario.node[38].appl 	NumberOfCollisions 	0
scalar IntersectionExampleScenario.node[38].nic.phy80211p 	busyTime 	0
scalar IntersectionExampleScenario.node[38].nic.mac1609_4 	ReceivedUnicastPackets 	0
scalar IntersectionExampleScenario.node[38].nic.mac1609_4 	ReceivedBroadcasts 	0
scalar IntersectionExampleScenario.node[38].nic.mac1609_4 	SentPackets 	0
scalar IntersectionExampleScenario.node[38].nic.mac1609_4 	SNIRLostPackets 	0
scalar IntersectionExampleScenario.node[38].nic.mac1609_4 	RXTXLostPackets 	0
scalar IntersectionExampleScenario.node[38].nic.mac1609_4 	TotalLostPackets 	0
scalar IntersectionExampleScenario.node[38].nic.mac1609_4 	DroppedPacketsInMac 	0
scalar IntersectionExampleScenario.node[38].nic.mac1609_4 	TooLittleTime 	0
scalar IntersectionExampleScenario.node[38].nic.mac1609_4 	TimesIntoBackoff 	0
scalar IntersectionExampleScenario.node[38].nic.mac1609_4 	SlotsBackoff 	0
scalar IntersectionExampleScenario.node[38].nic.mac1609_4 	NumInternalContention 	0
scalar IntersectionExampleScenario.node[38].nic.mac1609_4 	totalBusyTime 	0
scalar IntersectionExampleScenario.node[38].veinsmobility 	startTime 	136.5
scalar IntersectionExampleScenario.node[38].veinsmobility 	totalTime 	42.25
scalar IntersectionExampleScenario.node[38].veinsmobility 	stopTime 	179
scalar IntersectionExampleScenario.node[38].veinsmobility 	minSpeed 	5.6500000953674
scalar IntersectionExampleScenario.node[38].veinsmobility 	maxSpeed 	15.875
scalar IntersectionExampleScenario.node[38].veinsmobility 	totalDistance 	545.88987083695
scalar IntersectionExampleScenario.node[38].veinsmobility 	totalCO2Emission 	138.45293364215
scalar IntersectionExampleScenario.node[40].appl 	VehicleRemoved 	0
scalar IntersectionExampleScenario.node[40].appl 	ArrivedAtDest 	1
scalar IntersectionExampleScenario.node[40].appl 	IntersectionEnterTime 	141.25
scalar IntersectionExampleScenario.node[40].appl 	IntersectionExitTime 	165.55404863754
scalar IntersectionExampleScenario.node[40].appl 	NumberOfCollisions 	0
scalar IntersectionExampleScenario.node[40].nic.phy80211p 	busyTime 	0
scalar IntersectionExampleScenario.node[40].nic.mac1609_4 	ReceivedUnicastPackets 	0
scalar IntersectionExampleScenario.node[40].nic.mac1609_4 	ReceivedBroadcasts 	0
scalar IntersectionExampleScenario.node[40].nic.mac1609_4 	SentPackets 	0
scalar IntersectionExampleScenario.node[40].nic.mac1609_4 	SNIRLostPackets 	0
scalar IntersectionExampleScenario.node[40].nic.mac1609_4 	RXTXLostPackets 	0
scalar IntersectionExampleScenario.node[40].nic.mac1609_4 	TotalLostPackets 	0
scalar IntersectionExampleScenario.node[40].nic.mac1609_4 	DroppedPacketsInMac 	0
scalar IntersectionExampleScenario.node[40].nic.mac1609_4 	TooLittleTime 	0
scalar IntersectionExampleScenario.node[40].nic.mac1609_4 	TimesIntoBackoff 	0
scalar IntersectionExampleScenario.node[40].nic.mac1609_4 	SlotsBackoff 	0
scalar IntersectionExampleScenario.node[40].nic.mac1609_4 	NumInternalContention 	0
scalar IntersectionExampleScenario.node[40].nic.mac1609_4 	totalBusyTime 	0
scalar IntersectionExampleScenario.node[40].veinsmobility 	startTime 	141.25
scalar IntersectionExampleScenario.node[40].veinsmobility 	totalTime 	41.25
scalar IntersectionExampleScenario.node[40].veinsmobility 	stopTime 	182.75
scalar IntersectionExampleScenario.node[40].veinsmobility 	minSpeed 	5.6500000953674
scalar IntersectionExampleScenario.node[40].veinsmobility 	maxSpeed 	15.25
scalar IntersectionExampleScenario.node[40].veinsmobility 	totalDistance 	544.46422795136
scalar IntersectionExampleScenario.node[40].veinsmobility 	totalCO2Emission 	135.9431425556
scalar IntersectionExampleScenario.node[41].appl 	VehicleRemoved 	0
scalar IntersectionExampleScenario.node[41].appl 	ArrivedAtDest 	1
scalar IntersectionExampleScenario.node[41].appl 	IntersectionEnterTime 	142.75
scalar IntersectionExampleScenario.node[41].appl 	IntersectionExitTime 	167.11920749553
scalar IntersectionExampleScenario.node[41].appl 	NumberOfCollisions 	0
scalar IntersectionExampleScenario.node[41].nic.phy80211p 	busyTime 	0
scalar IntersectionExampleScenario.node[41].nic.mac1609_4 	ReceivedUnicastPackets 	0
scalar IntersectionExampleScenario.node[41].nic.mac1609_4 	ReceivedBroadcasts 	0
scalar IntersectionExampleScenario.node[41].nic.mac1609_4 	SentPackets 	0
scalar IntersectionExampleScenario.node[41].nic.mac1609_4 	SNIRLostPackets 	0
scalar IntersectionExampleScenario.node[41].nic.mac1609_4 	RXTXLostPackets 	0
scalar IntersectionExampleScenario.node[41].nic.mac1609_4 	TotalLostPackets 	0
scalar IntersectionExampleScenario.node[41].nic.mac1609_4 	DroppedPacketsInMac 	0
scalar IntersectionExampleScenario.node[41].nic.mac1609_4 	TooLittleTime 	0
scalar IntersectionExampleScenario.node[41].nic.mac1609_4 	TimesIntoBackoff 	0
[...]
scalar IntersectionExampleScenario.node[557].veinsmobility 	totalCO2Emission 	106.06987647735
scalar IntersectionExampleScenario.node[558].appl 	VehicleRemoved 	0
scalar IntersectionExampleScenario.node[558].appl 	ArrivedAtDest 	0
scalar IntersectionExampleScenario.node[558].appl 	IntersectionEnterTime 	1770.25
scalar IntersectionExampleScenario.node[558].appl 	IntersectionExitTime 	-1
scalar IntersectionExampleScenario.node[558].appl 	NumberOfCollisions 	0
scalar IntersectionExampleScenario.node[558].nic.phy80211p 	busyTime 	0
scalar IntersectionExampleScenario.node[558].nic.mac1609_4 	ReceivedUnicastPackets 	0
scalar IntersectionExampleScenario.node[558].nic.mac1609_4 	ReceivedBroadcasts 	0
scalar IntersectionExampleScenario.node[558].nic.mac1609_4 	SentPackets 	0
scalar IntersectionExampleScenario.node[558].nic.mac1609_4 	SNIRLostPackets 	0
scalar IntersectionExampleScenario.node[558].nic.mac1609_4 	RXTXLostPackets 	0
scalar IntersectionExampleScenario.node[558].nic.mac1609_4 	TotalLostPackets 	0
scalar IntersectionExampleScenario.node[558].nic.mac1609_4 	DroppedPacketsInMac 	0
scalar IntersectionExampleScenario.node[558].nic.mac1609_4 	TooLittleTime 	0
scalar IntersectionExampleScenario.node[558].nic.mac1609_4 	TimesIntoBackoff 	0
scalar IntersectionExampleScenario.node[558].nic.mac1609_4 	SlotsBackoff 	0
scalar IntersectionExampleScenario.node[558].nic.mac1609_4 	NumInternalContention 	0
scalar IntersectionExampleScenario.node[558].nic.mac1609_4 	totalBusyTime 	0
scalar IntersectionExampleScenario.node[558].veinsmobility 	startTime 	1770.25
scalar IntersectionExampleScenario.node[558].veinsmobility 	totalTime 	29.75
scalar IntersectionExampleScenario.node[558].veinsmobility 	stopTime 	1800
scalar IntersectionExampleScenario.node[558].veinsmobility 	minSpeed 	0
scalar IntersectionExampleScenario.node[558].veinsmobility 	maxSpeed 	15.64999961853
scalar IntersectionExampleScenario.node[558].veinsmobility 	totalDistance 	293.62503051758
scalar IntersectionExampleScenario.node[558].veinsmobility 	totalCO2Emission 	77.528914487672
scalar IntersectionExampleScenario.node[559].appl 	VehicleRemoved 	0
scalar IntersectionExampleScenario.node[559].appl 	ArrivedAtDest 	0
scalar IntersectionExampleScenario.node[559].appl 	IntersectionEnterTime 	1770.5
scalar IntersectionExampleScenario.node[559].appl 	IntersectionExitTime 	-1
scalar IntersectionExampleScenario.node[559].appl 	NumberOfCollisions 	0
scalar IntersectionExampleScenario.node[559].nic.phy80211p 	busyTime 	0
scalar IntersectionExampleScenario.node[559].nic.mac1609_4 	ReceivedUnicastPackets 	0
scalar IntersectionExampleScenario.node[559].nic.mac1609_4 	ReceivedBroadcasts 	0
scalar IntersectionExampleScenario.node[559].nic.mac1609_4 	SentPackets 	0
scalar IntersectionExampleScenario.node[559].nic.mac1609_4 	SNIRLostPackets 	0
scalar IntersectionExampleScenario.node[559].nic.mac1609_4 	RXTXLostPackets 	0
scalar IntersectionExampleScenario.node[559].nic.mac1609_4 	TotalLostPackets 	0
scalar IntersectionExampleScenario.node[559].nic.mac1609_4 	DroppedPacketsInMac 	0
scalar IntersectionExampleScenario.node[559].nic.mac1609_4 	TooLittleTime 	0
scalar IntersectionExampleScenario.node[559].nic.mac1609_4 	TimesIntoBackoff 	0
scalar IntersectionExampleScenario.node[559].nic.mac1609_4 	SlotsBackoff 	0
scalar IntersectionExampleScenario.node[559].nic.mac1609_4 	NumInternalContention 	0
scalar IntersectionExampleScenario.node[559].nic.mac1609_4 	totalBusyTime 	0
scalar IntersectionExampleScenario.node[559].veinsmobility 	startTime 	1770.5
scalar IntersectionExampleScenario.node[559].veinsmobility 	totalTime 	29.5
scalar IntersectionExampleScenario.node[559].veinsmobility 	stopTime 	1800
scalar IntersectionExampleScenario.node[559].veinsmobility 	minSpeed 	0
scalar IntersectionExampleScenario.node[559].veinsmobility 	maxSpeed 	15.419397354126
scalar IntersectionExampleScenario.node[559].veinsmobility 	totalDistance 	309.09307861328
scalar IntersectionExampleScenario.node[559].veinsmobility 	totalCO2Emission 	77.197462146695
scalar IntersectionExampleScenario.node[560].appl 	VehicleRemoved 	0
scalar IntersectionExampleScenario.node[560].appl 	ArrivedAtDest 	0
scalar IntersectionExampleScenario.node[560].appl 	IntersectionEnterTime 	1772.25
scalar IntersectionExampleScenario.node[560].appl 	IntersectionExitTime 	1797.2977412996
scalar IntersectionExampleScenario.node[560].appl 	NumberOfCollisions 	0
scalar IntersectionExampleScenario.node[560].nic.phy80211p 	busyTime 	0
scalar IntersectionExampleScenario.node[560].nic.mac1609_4 	ReceivedUnicastPackets 	0
scalar IntersectionExampleScenario.node[560].nic.mac1609_4 	ReceivedBroadcasts 	0
scalar IntersectionExampleScenario.node[560].nic.mac1609_4 	SentPackets 	0
scalar IntersectionExampleScenario.node[560].nic.mac1609_4 	SNIRLostPackets 	0
scalar IntersectionExampleScenario.node[560].nic.mac1609_4 	RXTXLostPackets 	0
scalar IntersectionExampleScenario.node[560].nic.mac1609_4 	TotalLostPackets 	0
scalar IntersectionExampleScenario.node[560].nic.mac1609_4 	DroppedPacketsInMac 	0
scalar IntersectionExampleScenario.node[560].nic.mac1609_4 	TooLittleTime 	0
scalar IntersectionExampleScenario.node[560].nic.mac1609_4 	TimesIntoBackoff 	0
scalar IntersectionExampleScenario.node[560].nic.mac1609_4 	SlotsBackoff 	0
scalar IntersectionExampleScenario.node[560].nic.mac1609_4 	NumInternalContention 	0
scalar IntersectionExampleScenario.node[560].nic.mac1609_4 	totalBusyTime 	0
scalar IntersectionExampleScenario.node[560].veinsmobility 	startTime 	1772.25
scalar IntersectionExampleScenario.node[560].veinsmobility 	totalTime 	27.75
scalar IntersectionExampleScenario.node[560].veinsmobility 	stopTime 	1800
scalar IntersectionExampleScenario.node[560].veinsmobility 	minSpeed 	5.6500000953674
scalar IntersectionExampleScenario.node[560].veinsmobility 	maxSpeed 	15.64999961853
scalar IntersectionExampleScenario.node[560].veinsmobility 	totalDistance 	355.46411093933
scalar IntersectionExampleScenario.node[560].veinsmobility 	totalCO2Emission 	92.831216563181
scalar IntersectionExampleScenario.node[561].appl 	VehicleRemoved 	0
scalar IntersectionExampleScenario.node[561].appl 	ArrivedAtDest 	0
scalar IntersectionExampleScenario.node[561].appl 	IntersectionEnterTime 	1773.5
scalar IntersectionExampleScenario.node[561].appl 	IntersectionExitTime 	1799.1140638689
scalar IntersectionExampleScenario.node[561].appl 	NumberOfCollisions 	0
scalar IntersectionExampleScenario.node[561].nic.phy80211p 	busyTime 	0
scalar IntersectionExampleScenario.node[561].nic.mac1609_4 	ReceivedUnicastPackets 	0
scalar IntersectionExampleScenario.node[561].nic.mac1609_4 	ReceivedBroadcasts 	0
scalar IntersectionExampleScenario.node[561].nic.mac1609_4 	SentPackets 	0
scalar IntersectionExampleScenario.node[561].nic.mac1609_4 	SNIRLostPackets 	0
scalar IntersectionExampleScenario.node[561].nic.mac1609_4 	RXTXLostPackets 	0
scalar IntersectionExampleScenario.node[561].nic.mac1609_4 	TotalLostPackets 	0
scalar IntersectionExampleScenario.node[561].nic.mac1609_4 	DroppedPacketsInMac 	0
scalar IntersectionExampleScenario.node[561].nic.mac1609_4 	TooLittleTime 	0
scalar IntersectionExampleScenario.node[561].nic.mac1609_4 	TimesIntoBackoff 	0
scalar IntersectionExampleScenario.node[561].nic.mac1609_4 	SlotsBackoff 	0
scalar IntersectionExampleScenario.node[561].nic.mac1609_4 	NumInternalContention 	0
scalar IntersectionExampleScenario.node[561].nic.mac1609_4 	totalBusyTime 	0
scalar IntersectionExampleScenario.node[561].veinsmobility 	startTime 	1773.5
scalar IntersectionExampleScenario.node[561].veinsmobility 	totalTime 	26.5
scalar IntersectionExampleScenario.node[561].veinsmobility 	stopTime 	1800
scalar IntersectionExampleScenario.node[561].veinsmobility 	minSpeed 	5.6500000953674
scalar IntersectionExampleScenario.node[561].veinsmobility 	maxSpeed 	15.668476104736
scalar IntersectionExampleScenario.node[561].veinsmobility 	totalDistance 	353.2438283605
scalar IntersectionExampleScenario.node[561].veinsmobility 	totalCO2Emission 	85.687312116097
scalar IntersectionExampleScenario.node[562].appl 	VehicleRemoved 	0
scalar IntersectionExampleScenario.node[562].appl 	ArrivedAtDest 	0
scalar IntersectionExampleScenario.node[562].appl 	IntersectionEnterTime 	1774.5
scalar IntersectionExampleScenario.node[562].appl 	IntersectionExitTime 	1797.8671677574
scalar IntersectionExampleScenario.node[562].appl 	NumberOfCollisions 	0
scalar IntersectionExampleScenario.node[562].nic.phy80211p 	busyTime 	0
scalar IntersectionExampleScenario.node[562].nic.mac1609_4 	ReceivedUnicastPackets 	0
scalar IntersectionExampleScenario.node[562].nic.mac1609_4 	ReceivedBroadcasts 	0
scalar IntersectionExampleScenario.node[562].nic.mac1609_4 	SentPackets 	0
scalar IntersectionExampleScenario.node[562].nic.mac1609_4 	SNIRLostPackets 	0
scalar IntersectionExampleScenario.node[562].nic.mac1609_4 	RXTXLostPackets 	0
scalar IntersectionExampleScenario.node[562].nic.mac1609_4 	TotalLostPackets 	0
scalar IntersectionExampleScenario.node[562].nic.mac1609_4 	DroppedPacketsInMac 	0
scalar IntersectionExampleScenario.node[562].nic.mac1609_4 	TooLittleTime 	0
scalar IntersectionExampleScenario.node[562].nic.mac1609_4 	TimesIntoBackoff 	0
scalar IntersectionExampleScenario.node[562].nic.mac1609_4 	SlotsBackoff 	0
scalar IntersectionExampleScenario.node[562].nic.mac1609_4 	NumInternalContention 	0
scalar IntersectionExampleScenario.node[562].nic.mac1609_4 	totalBusyTime 	0
scalar IntersectionExampleScenario.node[562].veinsmobility 	startTime 	1774.5
scalar IntersectionExampleScenario.node[562].veinsmobility 	totalTime 	25.5
scalar IntersectionExampleScenario.node[562].veinsmobility 	stopTime 	1800
scalar IntersectionExampleScenario.node[562].veinsmobility 	minSpeed 	5.6500000953674
scalar IntersectionExampleScenario.node[562].veinsmobility 	maxSpeed 	15.64999961853
scalar IntersectionExampleScenario.node[562].veinsmobility 	totalDistance 	326.47839056182
scalar IntersectionExampleScenario.node[562].veinsmobility 	totalCO2Emission 	76.766587136368
scalar IntersectionExampleScenario.node[563].appl 	VehicleRemoved 	0
scalar IntersectionExampleScenario.node[563].appl 	ArrivedAtDest 	0
scalar IntersectionExampleScenario.node[563].appl 	IntersectionEnterTime 	1775
scalar IntersectionExampleScenario.node[563].appl 	IntersectionExitTime 	-1
scalar IntersectionExampleScenario.node[563].appl 	NumberOfCollisions 	0
scalar IntersectionExampleScenario.node[563].nic.phy80211p 	busyTime 	0
scalar IntersectionExampleScenario.node[563].nic.mac1609_4 	ReceivedUnicastPackets 	0
scalar IntersectionExampleScenario.node[563].nic.mac1609_4 	ReceivedBroadcasts 	0
scalar IntersectionExampleScenario.node[563].nic.mac1609_4 	SentPackets 	0
scalar IntersectionExampleScenario.node[563].nic.mac1609_4 	SNIRLostPackets 	0
scalar IntersectionExampleScenario.node[563].nic.mac1609_4 	RXTXLostPackets 	0
scalar IntersectionExampleScenario.node[563].nic.mac1609_4 	TotalLostPackets 	0
scalar IntersectionExampleScenario.node[563].nic.mac1609_4 	DroppedPacketsInMac 	0
scalar IntersectionExampleScenario.node[563].nic.mac1609_4 	TooLittleTime 	0
scalar IntersectionExampleScenario.node[563].nic.mac1609_4 	TimesIntoBackoff 	0
scalar IntersectionExampleScenario.node[563].nic.mac1609_4 	SlotsBackoff 	0
scalar IntersectionExampleScenario.node[563].nic.mac1609_4 	NumInternalContention 	0
scalar IntersectionExampleScenario.node[563].nic.mac1609_4 	totalBusyTime 	0
scalar IntersectionExampleScenario.node[563].veinsmobility 	startTime 	1775
scalar IntersectionExampleScenario.node[563].veinsmobility 	totalTime 	25
scalar IntersectionExampleScenario.node[563].veinsmobility 	stopTime 	1800
scalar IntersectionExampleScenario.node[563].veinsmobility 	minSpeed 	0
scalar IntersectionExampleScenario.node[563].veinsmobility 	maxSpeed 	15.64999961853
scalar IntersectionExampleScenario.node[563].veinsmobility 	totalDistance 	293.62500409329
scalar IntersectionExampleScenario.node[563].veinsmobility 	totalCO2Emission 	73.517178757345
scalar IntersectionExampleScenario.node[564].appl 	VehicleRemoved 	0
scalar IntersectionExampleScenario.node[564].appl 	ArrivedAtDest 	0
scalar IntersectionExampleScenario.node[564].appl 	IntersectionEnterTime 	1785.25
scalar IntersectionExampleScenario.node[564].appl 	IntersectionExitTime 	-1
scalar IntersectionExampleScenario.node[564].appl 	NumberOfCollisions 	0
scalar IntersectionExampleScenario.node[564].nic.phy80211p 	busyTime 	0
scalar IntersectionExampleScenario.node[564].nic.mac1609_4 	ReceivedUnicastPackets 	0
scalar IntersectionExampleScenario.node[564].nic.mac1609_4 	ReceivedBroadcasts 	0
scalar IntersectionExampleScenario.node[564].nic.mac1609_4 	SentPackets 	0
scalar IntersectionExampleScenario.node[564].nic.mac1609_4 	SNIRLostPackets 	0
scalar IntersectionExampleScenario.node[564].nic.mac1609_4 	RXTXLostPackets 	0
scalar IntersectionExampleScenario.node[564].nic.mac1609_4 	TotalLostPackets 	0
scalar IntersectionExampleScenario.node[564].nic.mac1609_4 	DroppedPacketsInMac 	0
scalar IntersectionExampleScenario.node[564].nic.mac1609_4 	TooLittleTime 	0
scalar IntersectionExampleScenario.node[564].nic.mac1609_4 	TimesIntoBackoff 	0
scalar IntersectionExampleScenario.node[564].nic.mac1609_4 	SlotsBackoff 	0
scalar IntersectionExampleScenario.node[564].nic.mac1609_4 	NumInternalContention 	0
scalar IntersectionExampleScenario.node[564].nic.mac1609_4 	totalBusyTime 	0
scalar IntersectionExampleScenario.node[564].veinsmobility 	startTime 	1785.25
scalar IntersectionExampleScenario.node[564].veinsmobility 	totalTime 	14.75
scalar IntersectionExampleScenario.node[564].veinsmobility 	stopTime 	1800
scalar IntersectionExampleScenario.node[564].veinsmobility 	minSpeed 	5.6500000953674
scalar IntersectionExampleScenario.node[564].veinsmobility 	maxSpeed 	16.27499961853
scalar IntersectionExampleScenario.node[564].veinsmobility 	totalDistance 	211.82123565674
scalar IntersectionExampleScenario.node[564].veinsmobility 	totalCO2Emission 	58.496330673269
scalar IntersectionExampleScenario.node[565].appl 	VehicleRemoved 	0
scalar IntersectionExampleScenario.node[565].appl 	ArrivedAtDest 	0
scalar IntersectionExampleScenario.node[565].appl 	IntersectionEnterTime 	1790.75
scalar IntersectionExampleScenario.node[565].appl 	IntersectionExitTime 	-1
scalar IntersectionExampleScenario.node[565].appl 	NumberOfCollisions 	0
scalar IntersectionExampleScenario.node[565].nic.phy80211p 	busyTime 	0
scalar IntersectionExampleScenario.node[565].nic.mac1609_4 	ReceivedUnicastPackets 	0
scalar IntersectionExampleScenario.node[565].nic.mac1609_4 	ReceivedBroadcasts 	0
scalar IntersectionExampleScenario.node[565].nic.mac1609_4 	SentPackets 	0
scalar IntersectionExampleScenario.node[565].nic.mac1609_4 	SNIRLostPackets 	0
scalar IntersectionExampleScenario.node[565].nic.mac1609_4 	RXTXLostPackets 	0
scalar IntersectionExampleScenario.node[565].nic.mac1609_4 	TotalLostPackets 	0
scalar IntersectionExampleScenario.node[565].nic.mac1609_4 	DroppedPacketsInMac 	0
scalar IntersectionExampleScenario.node[565].nic.mac1609_4 	TooLittleTime 	0
scalar IntersectionExampleScenario.node[565].nic.mac1609_4 	TimesIntoBackoff 	0
scalar IntersectionExampleScenario.node[565].nic.mac1609_4 	SlotsBackoff 	0
scalar IntersectionExampleScenario.node[565].nic.mac1609_4 	NumInternalContention 	0
scalar IntersectionExampleScenario.node[565].nic.mac1609_4 	totalBusyTime 	0
scalar IntersectionExampleScenario.node[565].veinsmobility 	startTime 	1790.75
scalar IntersectionExampleScenario.node[565].veinsmobility 	totalTime 	9.25
scalar IntersectionExampleScenario.node[565].veinsmobility 	stopTime 	1800
scalar IntersectionExampleScenario.node[565].veinsmobility 	minSpeed 	5.6500000953674
scalar IntersectionExampleScenario.node[565].veinsmobility 	maxSpeed 	15.02499961853
scalar IntersectionExampleScenario.node[565].veinsmobility 	totalDistance 	118.40893554688
scalar IntersectionExampleScenario.node[565].veinsmobility 	totalCO2Emission 	41.399899169025
scalar IntersectionExampleScenario.node[566].appl 	VehicleRemoved 	0
scalar IntersectionExampleScenario.node[566].appl 	ArrivedAtDest 	0
scalar IntersectionExampleScenario.node[566].appl 	IntersectionEnterTime 	1792.25
scalar IntersectionExampleScenario.node[566].appl 	IntersectionExitTime 	-1
scalar IntersectionExampleScenario.node[566].appl 	NumberOfCollisions 	0
scalar IntersectionExampleScenario.node[566].nic.phy80211p 	busyTime 	0
scalar IntersectionExampleScenario.node[566].nic.mac1609_4 	ReceivedUnicastPackets 	0
scalar IntersectionExampleScenario.node[566].nic.mac1609_4 	ReceivedBroadcasts 	0
scalar IntersectionExampleScenario.node[566].nic.mac1609_4 	SentPackets 	0
scalar IntersectionExampleScenario.node[566].nic.mac1609_4 	SNIRLostPackets 	0
scalar IntersectionExampleScenario.node[566].nic.mac1609_4 	RXTXLostPackets 	0
scalar IntersectionExampleScenario.node[566].nic.mac1609_4 	TotalLostPackets 	0
scalar IntersectionExampleScenario.node[566].nic.mac1609_4 	DroppedPacketsInMac 	0
scalar IntersectionExampleScenario.node[566].nic.mac1609_4 	TooLittleTime 	0
scalar IntersectionExampleScenario.node[566].nic.mac1609_4 	TimesIntoBackoff 	0
scalar IntersectionExampleScenario.node[566].nic.mac1609_4 	SlotsBackoff 	0
scalar IntersectionExampleScenario.node[566].nic.mac1609_4 	NumInternalContention 	0
scalar IntersectionExampleScenario.node[566].nic.mac1609_4 	totalBusyTime 	0
scalar IntersectionExampleScenario.node[566].veinsmobility 	startTime 	1792.25
scalar IntersectionExampleScenario.node[566].veinsmobility 	totalTime 	7.75
scalar IntersectionExampleScenario.node[566].veinsmobility 	stopTime 	1800
scalar IntersectionExampleScenario.node[566].veinsmobility 	minSpeed 	5.6500000953674
scalar IntersectionExampleScenario.node[566].veinsmobility 	maxSpeed 	15.02499961853
scalar IntersectionExampleScenario.node[566].veinsmobility 	totalDistance 	96.188682556152
scalar IntersectionExampleScenario.node[566].veinsmobility 	totalCO2Emission 	38.36846475956
scalar IntersectionExampleScenario.node[567].appl 	VehicleRemoved 	0
scalar IntersectionExampleScenario.node[567].appl 	ArrivedAtDest 	0
scalar IntersectionExampleScenario.node[567].appl 	IntersectionEnterTime 	1798.5
scalar IntersectionExampleScenario.node[567].appl 	IntersectionExitTime 	-1
scalar IntersectionExampleScenario.node[567].appl 	NumberOfCollisions 	0
scalar IntersectionExampleScenario.node[567].nic.phy80211p 	busyTime 	0
scalar IntersectionExampleScenario.node[567].nic.mac1609_4 	ReceivedUnicastPackets 	0
scalar IntersectionExampleScenario.node[567].nic.mac1609_4 	ReceivedBroadcasts 	0
scalar IntersectionExampleScenario.node[567].nic.mac1609_4 	SentPackets 	0
scalar IntersectionExampleScenario.node[567].nic.mac1609_4 	SNIRLostPackets 	0
scalar IntersectionExampleScenario.node[567].nic.mac1609_4 	RXTXLostPackets 	0
scalar IntersectionExampleScenario.node[567].nic.mac1609_4 	TotalLostPackets 	0
scalar IntersectionExampleScenario.node[567].nic.mac1609_4 	DroppedPacketsInMac 	0
scalar IntersectionExampleScenario.node[567].nic.mac1609_4 	TooLittleTime 	0
scalar IntersectionExampleScenario.node[567].nic.mac1609_4 	TimesIntoBackoff 	0
scalar IntersectionExampleScenario.node[567].nic.mac1609_4 	SlotsBackoff 	0
scalar IntersectionExampleScenario.node[567].nic.mac1609_4 	NumInternalContention 	0
scalar IntersectionExampleScenario.node[567].nic.mac1609_4 	totalBusyTime 	0
scalar IntersectionExampleScenario.node[567].veinsmobility 	startTime 	1798.5
scalar IntersectionExampleScenario.node[567].veinsmobility 	totalTime 	1.5
scalar IntersectionExampleScenario.node[567].veinsmobility 	stopTime 	1800
scalar IntersectionExampleScenario.node[567].veinsmobility 	minSpeed 	5.6500000953674
scalar IntersectionExampleScenario.node[567].veinsmobility 	maxSpeed 	8.7749996185303
scalar IntersectionExampleScenario.node[567].veinsmobility 	totalDistance 	10.349990844727
scalar IntersectionExampleScenario.node[567].veinsmobility 	totalCO2Emission 	7.5597628883124
