file 17510834 1591404235                                        
version 2
run nodebug-40-20200605-20:41:29-14344
attr configname nodebug
attr datetime 20200605-20:41:29
attr experiment nodebug
attr inifile omnetpp.ini
attr iterationvars ""
attr iterationvars2 $repetition=40
attr measurement ""
attr network "\"org.car2x.veins.modules.application.ExtTraCIScenarioManagerLaunchd.IntersectionExampleScenario\""
attr processid 14344
attr repetition 40
attr replication #40
attr resultdir results
attr runnumber 40
attr seedset 40
param **.coreDebug false
param **.debug false
param *.**.nic.mac1609_4.bitrate 18Mbps
param *.**.nic.mac1609_4.txPower 20mW
param *.**.nic.mac1609_4.useServiceChannel false
param *.**.nic.phy80211p.analogueModels "xmldoc(\"config.xml\")"
param *.**.nic.phy80211p.decider "xmldoc(\"config.xml\")"
param *.**.nic.phy80211p.sensitivity -89dBm
param *.**.nic.phy80211p.thermalNoise -110dBm
param *.**.nic.phy80211p.usePropagationDelay true
param *.**.nic.phy80211p.useThermalNoise true
param *.annotations.draw false
param *.connectionManager.alpha 2.0
param *.connectionManager.carrierFrequency "5.890e9 Hz"
param *.connectionManager.pMax 20mW
param *.connectionManager.sat -89dBm
param *.connectionManager.sendDirect true
param *.manager.autoShutdown true
param *.manager.host "\"localhost\""
param *.manager.launchConfig "xmldoc(\"paramics.launchd.xml\")"
param *.manager.margin 25
param *.manager.moduleDisplayString "\"\""
param *.manager.moduleName "\"node\""
param *.manager.moduleType "\"org.car2x.veins.nodes.Car\""
param *.manager.port 9999
param *.manager.updateInterval 250ms
param *.node[*0].veinsmobility.accidentCount 0
param *.node[*0].veinsmobility.accidentDuration 30s
param *.node[*0].veinsmobility.accidentStart 75s
param *.node[*].appl.LiderSelectZoneRadio 55.0
param *.node[*].appl.ShareDataZoneRadio 110.0
param *.node[*].appl.TiempoSemaforo 30.0
param *.node[*].appl.beaconInterval 1s
param *.node[*].appl.beaconPriority 3
param *.node[*].appl.dataOnSch false
param *.node[*].appl.dataPriority 2
param *.node[*].appl.debug false
param *.node[*].appl.headerLength "256 bit"
param *.node[*].appl.maxOffset 0.005s
param *.node[*].appl.sendBeacons false
param *.node[*].appl.sendData true
param *.node[*].applType "\"Dummy\""
param *.node[*].mobilityType "\"TraCIMobility\""
param *.node[*].mobilityType.debug true
param *.node[*].veinsmobility.x 0
param *.node[*].veinsmobility.y 0
param *.node[*].veinsmobility.z 1.895
param *.node[*].veinsmobilityType "\"org.car2x.veins.modules.mobility.traci.TraCIMobility\""
param *.node[*].veinsmobilityType.debug true
param *.playgroundSizeX 8500m
param *.playgroundSizeY 8500m
param *.playgroundSizeZ 50m
param *.world.use2D false
param *.world.useTorus false

vector 50207  IntersectionExampleScenario.manager  vehiclesinsim  ETV
attr type  int
vector 50208  IntersectionExampleScenario.manager  realtime  ETV
attr type  int
attr unit  s
vector 50211  IntersectionExampleScenario.node[0].veinsmobility  posx  ETV
vector 50212  IntersectionExampleScenario.node[0].veinsmobility  posy  ETV
vector 50213  IntersectionExampleScenario.node[0].veinsmobility  speed  ETV
vector 50214  IntersectionExampleScenario.node[0].veinsmobility  acceleration  ETV
vector 50215  IntersectionExampleScenario.node[0].veinsmobility  co2emission  ETV
vector 50218  IntersectionExampleScenario.node[1].veinsmobility  posx  ETV
vector 50219  IntersectionExampleScenario.node[1].veinsmobility  posy  ETV
vector 50220  IntersectionExampleScenario.node[1].veinsmobility  speed  ETV
vector 50221  IntersectionExampleScenario.node[1].veinsmobility  acceleration  ETV
vector 50222  IntersectionExampleScenario.node[1].veinsmobility  co2emission  ETV
vector 50225  IntersectionExampleScenario.node[2].veinsmobility  posx  ETV
vector 50226  IntersectionExampleScenario.node[2].veinsmobility  posy  ETV
vector 50227  IntersectionExampleScenario.node[2].veinsmobility  speed  ETV
vector 50228  IntersectionExampleScenario.node[2].veinsmobility  acceleration  ETV
vector 50229  IntersectionExampleScenario.node[2].veinsmobility  co2emission  ETV
vector 50232  IntersectionExampleScenario.node[3].veinsmobility  posx  ETV
vector 50233  IntersectionExampleScenario.node[3].veinsmobility  posy  ETV
vector 50234  IntersectionExampleScenario.node[3].veinsmobility  speed  ETV
vector 50235  IntersectionExampleScenario.node[3].veinsmobility  acceleration  ETV
vector 50236  IntersectionExampleScenario.node[3].veinsmobility  co2emission  ETV
vector 50239  IntersectionExampleScenario.node[4].veinsmobility  posx  ETV
vector 50240  IntersectionExampleScenario.node[4].veinsmobility  posy  ETV
vector 50241  IntersectionExampleScenario.node[4].veinsmobility  speed  ETV
vector 50242  IntersectionExampleScenario.node[4].veinsmobility  acceleration  ETV
vector 50243  IntersectionExampleScenario.node[4].veinsmobility  co2emission  ETV
vector 50246  IntersectionExampleScenario.node[5].veinsmobility  posx  ETV
vector 50247  IntersectionExampleScenario.node[5].veinsmobility  posy  ETV
vector 50248  IntersectionExampleScenario.node[5].veinsmobility  speed  ETV
vector 50249  IntersectionExampleScenario.node[5].veinsmobility  acceleration  ETV
vector 50250  IntersectionExampleScenario.node[5].veinsmobility  co2emission  ETV
vector 50253  IntersectionExampleScenario.node[6].veinsmobility  posx  ETV
vector 50254  IntersectionExampleScenario.node[6].veinsmobility  posy  ETV
vector 50255  IntersectionExampleScenario.node[6].veinsmobility  speed  ETV
vector 50256  IntersectionExampleScenario.node[6].veinsmobility  acceleration  ETV
vector 50257  IntersectionExampleScenario.node[6].veinsmobility  co2emission  ETV
vector 50260  IntersectionExampleScenario.node[7].veinsmobility  posx  ETV
vector 50261  IntersectionExampleScenario.node[7].veinsmobility  posy  ETV
vector 50267  IntersectionExampleScenario.node[8].veinsmobility  posx  ETV
vector 50268  IntersectionExampleScenario.node[8].veinsmobility  posy  ETV
vector 50262  IntersectionExampleScenario.node[7].veinsmobility  speed  ETV
vector 50263  IntersectionExampleScenario.node[7].veinsmobility  acceleration  ETV
vector 50264  IntersectionExampleScenario.node[7].veinsmobility  co2emission  ETV
vector 50269  IntersectionExampleScenario.node[8].veinsmobility  speed  ETV
vector 50270  IntersectionExampleScenario.node[8].veinsmobility  acceleration  ETV
vector 50271  IntersectionExampleScenario.node[8].veinsmobility  co2emission  ETV
vector 50274  IntersectionExampleScenario.node[9].veinsmobility  posx  ETV
vector 50275  IntersectionExampleScenario.node[9].veinsmobility  posy  ETV
vector 50276  IntersectionExampleScenario.node[9].veinsmobility  speed  ETV
vector 50277  IntersectionExampleScenario.node[9].veinsmobility  acceleration  ETV
vector 50278  IntersectionExampleScenario.node[9].veinsmobility  co2emission  ETV
vector 50281  IntersectionExampleScenario.node[10].veinsmobility  posx  ETV
vector 50282  IntersectionExampleScenario.node[10].veinsmobility  posy  ETV
vector 50283  IntersectionExampleScenario.node[10].veinsmobility  speed  ETV
vector 50284  IntersectionExampleScenario.node[10].veinsmobility  acceleration  ETV
vector 50285  IntersectionExampleScenario.node[10].veinsmobility  co2emission  ETV
vector 50288  IntersectionExampleScenario.node[11].veinsmobility  posx  ETV
vector 50289  IntersectionExampleScenario.node[11].veinsmobility  posy  ETV
vector 50290  IntersectionExampleScenario.node[11].veinsmobility  speed  ETV
vector 50295  IntersectionExampleScenario.node[12].veinsmobility  posx  ETV
vector 50296  IntersectionExampleScenario.node[12].veinsmobility  posy  ETV
vector 50291  IntersectionExampleScenario.node[11].veinsmobility  acceleration  ETV
vector 50292  IntersectionExampleScenario.node[11].veinsmobility  co2emission  ETV
vector 50297  IntersectionExampleScenario.node[12].veinsmobility  speed  ETV
vector 50298  IntersectionExampleScenario.node[12].veinsmobility  acceleration  ETV
vector 50299  IntersectionExampleScenario.node[12].veinsmobility  co2emission  ETV
vector 50302  IntersectionExampleScenario.node[13].veinsmobility  posx  ETV
vector 50303  IntersectionExampleScenario.node[13].veinsmobility  posy  ETV
50215	8253 5592 19 2595 3.5 50.5 189 0.94600815583079 12.353032912318 588.9091722884 3376.1545607457
50214	13845 5174 19 2595 3.5 50.5 189 -8.3548927307129 4 41.566686630249 523.56766388899
50213	19019 5417 16 2595 3.25 50.5 190 0 16.625 2211.588947773 32771.553883798
50212	24436 6114 13 2595 3 50.5 191 184.17810058594 733.03507995605 86375.317657471 43067507.62411
50211	30550 6152 13 2595 3 50.5 191 486.85000610352 486.85000610352 92988.351165771 45271379.332612
vector 50304  IntersectionExampleScenario.node[13].veinsmobility  speed  ETV
50222	36780 5533 38 2616 4.75 50.75 185 0.973 12.099024792222 574.35893080959 3218.9942236765
50221	42313 5298 38 2616 4.75 50.75 185 -8.5031824111938 4 40.378400802612 511.54601133652
50220	47611 5425 33 2616 4.5 50.75 186 0 16.27499961853 2209.8754968643 32226.318643594
50219	53036 6012 28 2616 4.25 50.75 187 237.24304199219 785.82187652588 96878.608695984 54236824.284925
50218	59048 6038 28 2616 4.25 50.75 187 483.14999389648 483.14999389648 90349.048858643 43652142.404606
vector 50309  IntersectionExampleScenario.node[14].veinsmobility  posx  ETV
vector 50310  IntersectionExampleScenario.node[14].veinsmobility  posy  ETV
vector 50305  IntersectionExampleScenario.node[13].veinsmobility  acceleration  ETV
vector 50306  IntersectionExampleScenario.node[13].veinsmobility  co2emission  ETV
vector 50311  IntersectionExampleScenario.node[14].veinsmobility  speed  ETV
vector 50312  IntersectionExampleScenario.node[14].veinsmobility  acceleration  ETV
vector 50313  IntersectionExampleScenario.node[14].veinsmobility  co2emission  ETV
vector 50316  IntersectionExampleScenario.node[15].veinsmobility  posx  ETV
vector 50317  IntersectionExampleScenario.node[15].veinsmobility  posy  ETV
vector 50318  IntersectionExampleScenario.node[15].veinsmobility  speed  ETV
vector 50319  IntersectionExampleScenario.node[15].veinsmobility  acceleration  ETV
vector 50320  IntersectionExampleScenario.node[15].veinsmobility  co2emission  ETV
vector 50323  IntersectionExampleScenario.node[16].veinsmobility  posx  ETV
vector 50324  IntersectionExampleScenario.node[16].veinsmobility  posy  ETV
vector 50325  IntersectionExampleScenario.node[16].veinsmobility  speed  ETV
50229	66289 5430 172 2946 11.25 55.25 177 0.973 11.200708441096 533.41451511933 2821.5452183266
50228	71719 5185 172 2946 11.25 55.25 177 -3.5775718688965 2.5000019073486 35.625318527222 318.71582288854
50227	76904 5490 165 2946 11 55.25 178 5.6500000953674 15.02499961853 2192.578233242 28649.928118756
50226	82394 5813 158 2946 10.75 55.25 179 184.17810058594 483.15023803711 71637.016967773 30469597.737639
50225	88207 5827 158 2946 10.75 55.25 179 486.85000610352 735.34533691406 95845.593307495 52335929.62711
vector 50326  IntersectionExampleScenario.node[16].veinsmobility  acceleration  ETV
vector 50327  IntersectionExampleScenario.node[16].veinsmobility  co2emission  ETV
vector 50330  IntersectionExampleScenario.node[17].veinsmobility  posx  ETV
vector 50331  IntersectionExampleScenario.node[17].veinsmobility  posy  ETV
vector 50332  IntersectionExampleScenario.node[17].veinsmobility  speed  ETV
vector 50333  IntersectionExampleScenario.node[17].veinsmobility  acceleration  ETV
vector 50334  IntersectionExampleScenario.node[17].veinsmobility  co2emission  ETV
vector 50337  IntersectionExampleScenario.node[18].veinsmobility  posx  ETV
vector 50338  IntersectionExampleScenario.node[18].veinsmobility  posy  ETV
vector 50339  IntersectionExampleScenario.node[18].veinsmobility  speed  ETV
vector 50340  IntersectionExampleScenario.node[18].veinsmobility  acceleration  ETV
vector 50341  IntersectionExampleScenario.node[18].veinsmobility  co2emission  ETV
50257	95005 5227 782 3744 24.75 65.25 163 0.973 11.200708441096 475.61953614746 2365.5761666609
50256	100232 4722 782 3744 24.75 65.25 163 -3.4457092285156 2.5 35.625318527222 215.99184453237
50255	104954 5121 767 3744 24.5 65.25 164 5.6500000953674 15.02499961853 2213.7516422272 30634.252293136
50254	110075 5422 752 3744 24.25 65.25 165 483.14999389648 785.82187652588 94247.744087219 55655417.937587
50253	115497 5417 752 3744 24.25 65.25 165 483.14999389648 734.7014465332 88608.659439087 48596970.46685
vector 50344  IntersectionExampleScenario.node[19].veinsmobility  posx  ETV
vector 50345  IntersectionExampleScenario.node[19].veinsmobility  posy  ETV
vector 50351  IntersectionExampleScenario.node[20].veinsmobility  posx  ETV
vector 50352  IntersectionExampleScenario.node[20].veinsmobility  posy  ETV
vector 50346  IntersectionExampleScenario.node[19].veinsmobility  speed  ETV
vector 50353  IntersectionExampleScenario.node[20].veinsmobility  speed  ETV
vector 50347  IntersectionExampleScenario.node[19].veinsmobility  acceleration  ETV
vector 50348  IntersectionExampleScenario.node[19].veinsmobility  co2emission  ETV
vector 50354  IntersectionExampleScenario.node[20].veinsmobility  acceleration  ETV
vector 50355  IntersectionExampleScenario.node[20].veinsmobility  co2emission  ETV
50236	121716 6254 260 3902 14.25 67 212 0.973 11.90022389248 594.97740992329 3115.7973506542
50235	127970 5741 260 3902 14.25 67 212 -7.2641291618347 4 39.699392318726 488.74806203163
50234	133711 6040 251 3902 14 67 213 0 16 2217.2994669676 32035.832177997
50233	139751 7002 242 3902 13.75 67 214 486.85000610352 486.85000610352 104185.90130615 50722906.6868
50232	146753 6991 242 3902 13.75 67 214 235.46020507812 785.82187652588 110234.20282745 60910925.074549
50250	153744 5999 414 3925 17.75 67.25 199 0.973 11.450879080643 557.14849679093 2786.7004327422
50249	159743 5524 414 3925 17.75 67.25 199 -8.2128305435181 4 36.813589096069 483.09835472119
50248	165267 5827 401 3925 17.5 67.25 200 0 15.375 2179.3116796017 30171.351539771
50247	171094 6583 388 3925 17.25 67.25 201 483.14999389648 732.66677856445 105679.4692688 56624492.40771
50246	177677 6558 388 3925 17.25 67.25 201 184.17810058594 486.85000610352 82841.78427124 36104151.289244
50243	184235 6794 300 4121 15.25 69.5 218 0.973 11.385953267212 586.30762852927 2797.885378426
50242	191029 6673 300 4121 15.25 69.5 218 -4.5 2.5000000298023 36.813589096069 452.8216055763
50241	197702 6948 289 4121 15 69.5 219 0 15.284304618835 2266.9365755375 30717.913516012
50240	204650 7201 278 4121 14.75 69.5 220 486.85000610352 731.98327636719 115413.17814636 61586758.473812
50239	211851 7188 278 4121 14.75 69.5 220 486.74475097656 807.99687957764 124235.77199554 72506699.035413
vector 50358  IntersectionExampleScenario.node[21].veinsmobility  posx  ETV
vector 50359  IntersectionExampleScenario.node[21].veinsmobility  posy  ETV
vector 50360  IntersectionExampleScenario.node[21].veinsmobility  speed  ETV
vector 50361  IntersectionExampleScenario.node[21].veinsmobility  acceleration  ETV
vector 50362  IntersectionExampleScenario.node[21].veinsmobility  co2emission  ETV
50264	219440 5306 1088 4314 29.75 71.75 169 0.973 11.200708441096 541.94459094028 3076.4493844323
50263	224746 4986 1088 4314 29.75 71.75 169 -4.2257652282715 2.5 35.625318527222 350.41565179031
50262	229732 5302 1069 4314 29.5 71.75 170 5.6500000953674 15.02499961853 2175.3907356262 29021.686171177
50261	235034 5639 1052 4314 29.25 71.75 171 238.34881591797 483.14999389648 74171.717071533 33130428.311884
50260	240673 5625 1052 4314 29.25 71.75 171 184.17810058594 483.17572021484 68075.70425415 28882058.109501
vector 50365  IntersectionExampleScenario.node[22].veinsmobility  posx  ETV
vector 50366  IntersectionExampleScenario.node[22].veinsmobility  posy  ETV
50271	246452 5516 1107 4475 30 73.5 175 0.973 10.96730806908 563.49711683575 2926.4009642966
50270	251968 5398 1107 4475 30 73.5 175 -4.5 2.5 38.850629806519 336.13888644612
50269	257366 5505 1088 4475 29.75 73.5 176 5.6500000953674 15.418245315552 2288.251180172 31337.464375286
50268	262871 5828 1069 4475 29.5 73.5 177 235.27947998047 483.14999389648 77271.931060791 34705647.618303
50267	268699 5826 1069 4475 29.5 73.5 177 159.76721191406 483.14999389648 68798.818115234 28914341.118143
vector 50367  IntersectionExampleScenario.node[22].veinsmobility  speed  ETV
vector 50368  IntersectionExampleScenario.node[22].veinsmobility  acceleration  ETV
vector 50369  IntersectionExampleScenario.node[22].veinsmobility  co2emission  ETV
vector 50372  IntersectionExampleScenario.node[23].veinsmobility  posx  ETV
vector 50373  IntersectionExampleScenario.node[23].veinsmobility  posy  ETV
vector 50379  IntersectionExampleScenario.node[24].veinsmobility  posx  ETV
vector 50380  IntersectionExampleScenario.node[24].veinsmobility  posy  ETV
vector 50374  IntersectionExampleScenario.node[23].veinsmobility  speed  ETV
vector 50375  IntersectionExampleScenario.node[23].veinsmobility  acceleration  ETV
vector 50376  IntersectionExampleScenario.node[23].veinsmobility  co2emission  ETV
vector 50381  IntersectionExampleScenario.node[24].veinsmobility  speed  ETV
vector 50382  IntersectionExampleScenario.node[24].veinsmobility  acceleration  ETV
vector 50383  IntersectionExampleScenario.node[24].veinsmobility  co2emission  ETV
vector 50386  IntersectionExampleScenario.node[25].veinsmobility  posx  ETV
vector 50387  IntersectionExampleScenario.node[25].veinsmobility  posy  ETV
vector 50388  IntersectionExampleScenario.node[25].veinsmobility  speed  ETV
vector 50389  IntersectionExampleScenario.node[25].veinsmobility  acceleration  ETV
vector 50390  IntersectionExampleScenario.node[25].veinsmobility  co2emission  ETV
vector 50393  IntersectionExampleScenario.node[26].veinsmobility  posx  ETV
vector 50394  IntersectionExampleScenario.node[26].veinsmobility  posy  ETV
vector 50395  IntersectionExampleScenario.node[26].veinsmobility  speed  ETV
vector 50396  IntersectionExampleScenario.node[26].veinsmobility  acceleration  ETV
vector 50397  IntersectionExampleScenario.node[26].veinsmobility  co2emission  ETV
vector 50400  IntersectionExampleScenario.node[27].veinsmobility  posx  ETV
vector 50401  IntersectionExampleScenario.node[27].veinsmobility  posy  ETV
vector 50402  IntersectionExampleScenario.node[27].veinsmobility  speed  ETV
vector 50403  IntersectionExampleScenario.node[27].veinsmobility  acceleration  ETV
vector 50404  IntersectionExampleScenario.node[27].veinsmobility  co2emission  ETV
vector 50407  IntersectionExampleScenario.node[28].veinsmobility  posx  ETV
vector 50408  IntersectionExampleScenario.node[28].veinsmobility  posy  ETV
vector 50409  IntersectionExampleScenario.node[28].veinsmobility  speed  ETV
vector 50410  IntersectionExampleScenario.node[28].veinsmobility  acceleration  ETV
vector 50411  IntersectionExampleScenario.node[28].veinsmobility  co2emission  ETV
50278	277178 6164 1225 5480 31.5 82.25 204 0.973 11.450879080643 574.3489202024 2845.0181331715
50277	283342 5705 1225 5480 31.5 82.25 204 -7.061737537384 4 38.341367721558 473.28922057495
50276	289047 5958 1204 5480 31.25 82.25 205 0 15.375 2200.1366199255 31095.235742431
50275	295005 6791 1183 5480 31 82.25 206 483.14999389648 785.82187652588 114428.72237396 65532029.324551
50274	301796 6793 1183 5480 31 82.25 206 483.14999389648 732.70495605469 107903.84753418 57572679.962046
50285	308589 5121 1987 5605 42.25 83.25 165 0.973 12.099024792222 553.52925122095 3291.755240263
50284	313710 4794 1987 5605 42.25 83.25 165 -4.8819351196289 2.5000019073486 41.736440658569 320.6297374059
50283	318504 5214 1970 5605 42 83.25 166 5.1447677612305 16.27499961853 2214.2406177521 31598.431490601
50282	323718 5498 1953 5605 41.75 83.25 167 238.15972900391 785.82187652588 87667.718772888 49989054.802734
50281	329216 5511 1953 5605 41.75 83.25 167 483.14999389648 483.14999389648 80686.048980713 38983464.072563
vector 50414  IntersectionExampleScenario.node[29].veinsmobility  posx  ETV
vector 50415  IntersectionExampleScenario.node[29].veinsmobility  posy  ETV
vector 50416  IntersectionExampleScenario.node[29].veinsmobility  speed  ETV
vector 50417  IntersectionExampleScenario.node[29].veinsmobility  acceleration  ETV
vector 50418  IntersectionExampleScenario.node[29].veinsmobility  co2emission  ETV
vector 50421  IntersectionExampleScenario.node[30].veinsmobility  posx  ETV
vector 50422  IntersectionExampleScenario.node[30].veinsmobility  posy  ETV
vector 50428  IntersectionExampleScenario.node[31].veinsmobility  posx  ETV
vector 50429  IntersectionExampleScenario.node[31].veinsmobility  posy  ETV
vector 50423  IntersectionExampleScenario.node[30].veinsmobility  speed  ETV
vector 50424  IntersectionExampleScenario.node[30].veinsmobility  acceleration  ETV
vector 50425  IntersectionExampleScenario.node[30].veinsmobility  co2emission  ETV
vector 50430  IntersectionExampleScenario.node[31].veinsmobility  speed  ETV
vector 50431  IntersectionExampleScenario.node[31].veinsmobility  acceleration  ETV
vector 50432  IntersectionExampleScenario.node[31].veinsmobility  co2emission  ETV
50313	335930 5113 2677 6423 51.5 91 159 0.973 11.450879080643 484.44724015116 2505.8905222211
50312	341043 4551 2677 6423 51.5 91 159 -3.4813346862793 2.5 37.32285118103 228.62201856403
50311	345594 4998 2657 6423 51.25 91 160 5.6500000953674 15.375 2206.753443718 31288.618338187
50310	350592 5307 2636 6423 51 91 161 483.14999389648 785.82187652588 92074.922691345 54448666.658347
50309	355899 5302 2636 6423 51 91 161 483.14999389648 732.93559265137 86313.589279175 47241572.564034
vector 50435  IntersectionExampleScenario.node[32].veinsmobility  posx  ETV
vector 50436  IntersectionExampleScenario.node[32].veinsmobility  posy  ETV
vector 50437  IntersectionExampleScenario.node[32].veinsmobility  speed  ETV
vector 50438  IntersectionExampleScenario.node[32].veinsmobility  acceleration  ETV
vector 50439  IntersectionExampleScenario.node[32].veinsmobility  co2emission  ETV
vector 50442  IntersectionExampleScenario.node[33].veinsmobility  posx  ETV
vector 50443  IntersectionExampleScenario.node[33].veinsmobility  posy  ETV
vector 50444  IntersectionExampleScenario.node[33].veinsmobility  speed  ETV
vector 50445  IntersectionExampleScenario.node[33].veinsmobility  acceleration  ETV
vector 50446  IntersectionExampleScenario.node[33].veinsmobility  co2emission  ETV
vector 50449  IntersectionExampleScenario.node[34].veinsmobility  posx  ETV
vector 50450  IntersectionExampleScenario.node[34].veinsmobility  posy  ETV
vector 50451  IntersectionExampleScenario.node[34].veinsmobility  speed  ETV
vector 50452  IntersectionExampleScenario.node[34].veinsmobility  acceleration  ETV
vector 50453  IntersectionExampleScenario.node[34].veinsmobility  co2emission  ETV
50306	362404 5730 2636 7204 51 97.75 188 0.973 12.099024792222 577.27793080959 3221.8344106765
50305	368134 5483 2636 7204 51 97.75 188 -8.5031824111938 4 40.378400802612 511.54601133652
50304	373617 5614 2616 7204 50.75 97.75 189 0 16.27499961853 2209.8754968643 32226.318643594
50303	379231 6271 2595 7204 50.5 97.75 190 486.85000610352 486.85000610352 92501.501159668 45034356.404169
50302	385502 6245 2595 7204 50.5 97.75 190 237.24304199219 785.82187652588 98373.808677673 54982031.946673
50292	391747 6351 2297 7348 46.75 99 210 0.973 11.00486315618 548.33254687053 2538.3041610443
50291	398098 5756 2297 7348 46.75 99 210 -7.8153886795044 4 34.267293930054 450.84467511232
50290	403854 6167 2278 7348 46.5 99 211 0 14.75 2185.9177105427 29145.171649374
50289	410021 6980 2259 7348 46.25 99 212 483.14999389648 734.54695129395 111491.33560181 59768509.680869
50288	417001 6970 2259 7348 46.25 99 212 184.17810058594 486.85000610352 87701.451416016 38304542.091883
50299	423971 6780 2339 7534 47.25 100.75 215 0.973 11.00486315618 584.48900969781 2629.8122737667
50298	430751 6500 2339 7534 47.25 100.75 215 -4.5 2.5 37.32285118103 435.05473127439
50297	437251 6842 2318 7534 47 100.75 216 0 15.016894340515 2297.8441989366 31440.878069319
50296	444093 7154 2297 7534 46.75 100.75 217 483.14999389648 732.48789978027 113347.38116455 60284804.653178
50295	451247 7132 2297 7534 46.75 100.75 217 160.43438720703 486.98635864258 87865.580413818 37990986.163698
50320	458379 5734 2910 7559 54.75 101 186 0.973 11.00486315618 512.57763502039 2477.2972909071
50319	464113 5621 2910 7559 54.75 101 186 -2.7241668701172 2.5 34.437047958374 272.19012566768
50318	469734 5893 2892 7559 54.5 101 187 3.1573631763458 14.75 2245.0049276352 29106.502405824
50317	475627 6197 2873 7559 54.25 101 188 235.66827392578 486.85000610352 82493.265167236 37277741.890298
50316	481824 6189 2873 7559 54.25 101 188 483.14999389648 793.78281402588 107030.71866608 62950552.033209
50327	488013 5710 2965 7681 55.5 102.25 188 0.973 11.54047740176 535.88230433246 2765.1744958313
50326	493723 5773 2965 7681 55.5 102.25 188 -3.4264831542969 2.5 37.15309715271 314.91170085331
50325	499496 6041 2946 7681 55.25 102.25 189 2.906361579895 15.5 2222.5179190636 29297.492986693
50324	505537 6279 2927 7681 55 102.25 190 483.14999389648 483.14999389648 91798.498840332 44352444.154413
50323	511816 6247 2927 7681 55 102.25 190 184.17810058594 734.86219787598 85143.478729248 42405357.848812
vector 50456  IntersectionExampleScenario.node[35].veinsmobility  posx  ETV
vector 50457  IntersectionExampleScenario.node[35].veinsmobility  posy  ETV
vector 50458  IntersectionExampleScenario.node[35].veinsmobility  speed  ETV
vector 50459  IntersectionExampleScenario.node[35].veinsmobility  acceleration  ETV
vector 50460  IntersectionExampleScenario.node[35].veinsmobility  co2emission  ETV
50334	518464 6024 3064 7947 56.75 105 194 0.973 11.481896476951 582.08001235817 2949.0882982269
50333	524488 5887 3064 7947 56.75 105 194 -5.2576293945312 2.5000009536743 37.832105636597 457.31254271919
50332	530375 6140 3043 7947 56.5 105 195 3.0222933292389 15.418293952942 2259.8120443821 29595.966594032
50331	536515 6483 3022 7947 56.25 105 196 238.78326416016 483.14999389648 86564.063964844 39213844.267005
50330	542998 6467 3022 7947 56.25 105 196 162.90466308594 483.1985168457 77226.302276611 32571178.077724
vector 50463  IntersectionExampleScenario.node[36].veinsmobility  posx  ETV
vector 50464  IntersectionExampleScenario.node[36].veinsmobility  posy  ETV
vector 50465  IntersectionExampleScenario.node[36].veinsmobility  speed  ETV
vector 50466  IntersectionExampleScenario.node[36].veinsmobility  acceleration  ETV
vector 50467  IntersectionExampleScenario.node[36].veinsmobility  co2emission  ETV
50348	549866 5071 3856 8045 66.5 106 159 0.973 11.648172402475 509.46133209383 2839.9715633148
50347	554937 4821 3856 8045 66.5 106 159 -3.5595626831055 2.5 38.511121749878 286.36411897265
50346	559758 4996 3832 8045 66.25 106 160 5.6500000953674 15.743536949158 2185.2693595886 31191.952617012
50345	564754 5331 3807 8045 66 106 161 486.85000610352 733.50631713867 86569.793182373 47474456.670742
50344	570085 5326 3807 8045 66 106 161 486.85000610352 785.82187652588 92169.468971252 54505481.081544
50362	575411 4973 4314 8445 71.75 110 154 0.973 11.648172402475 468.62874684574 2503.1692183602
50361	580384 4901 4314 8445 71.75 110 154 -3.0907402038574 2.5 38.001859664917 193.76025331614
50360	585285 4916 4291 8445 71.5 110 155 5.6500000953674 15.64999961853 2209.7773084641 32123.124340223
50359	590201 5189 4268 8445 71.25 110 156 486.85000610352 486.85000610352 75948.600952148 36975576.837107
50358	595390 5178 4268 8445 71.25 110 156 238.58703613281 785.82187652588 81457.270179749 46648146.870651
vector 50470  IntersectionExampleScenario.node[37].veinsmobility  posx  ETV
vector 50471  IntersectionExampleScenario.node[37].veinsmobility  posy  ETV
50341	600722 6272 3450 8743 61.75 113.25 207 0.973 11.648172402475 576.07396353784 2921.7481850903
50340	606994 5650 3450 8743 61.75 113.25 207 -7.03919506073 4 38.341367721558 476.33694168539
50339	612644 6039 3429 8743 61.5 113.25 208 0 15.64999961853 2177.4668385983 30628.127941716
50338	618683 6948 3408 8743 61.25 113.25 209 486.63604736328 785.82187652588 116149.55782318 66489684.932281
50337	625631 6887 3408 8743 61.25 113.25 209 236.95220947266 483.14999389648 92796.601043701 42220056.40592
vector 50472  IntersectionExampleScenario.node[37].veinsmobility  speed  ETV
vector 50477  IntersectionExampleScenario.node[38].veinsmobility  posx  ETV
vector 50478  IntersectionExampleScenario.node[38].veinsmobility  posy  ETV
vector 50473  IntersectionExampleScenario.node[37].veinsmobility  acceleration  ETV
vector 50474  IntersectionExampleScenario.node[37].veinsmobility  co2emission  ETV
vector 50479  IntersectionExampleScenario.node[38].veinsmobility  speed  ETV
vector 50480  IntersectionExampleScenario.node[38].veinsmobility  acceleration  ETV
vector 50481  IntersectionExampleScenario.node[38].veinsmobility  co2emission  ETV
50355	633166 6026 3856 8874 66.5 114.75 194 0.973 11.648172402475 577.39573340055 2918.1229809924
50354	639192 5546 3856 8874 66.5 114.75 194 -6.9388580322266 4 39.869146347046 478.25228787921
50353	644738 6139 3832 8874 66.25 114.75 195 0 15.64999961853 2201.2384675443 31579.217334947
50352	650877 6500 3807 8874 66 114.75 196 184.17810058594 486.85000610352 80863.077819824 35286494.050591
50351	657377 6516 3807 8874 66 114.75 196 237.09313964844 486.85000610352 87203.680511475 39817130.530438
vector 50484  IntersectionExampleScenario.node[39].veinsmobility  posx  ETV
vector 50485  IntersectionExampleScenario.node[39].veinsmobility  posy  ETV
vector 50486  IntersectionExampleScenario.node[39].veinsmobility  speed  ETV
vector 50487  IntersectionExampleScenario.node[39].veinsmobility  acceleration  ETV
vector 50488  IntersectionExampleScenario.node[39].veinsmobility  co2emission  ETV
50369	664294 5477 4525 9105 74 117.5 175 0.973 11.36141391502 536.52711391123 2959.2462739348
50368	669771 5391 4525 9105 74 117.5 175 -2.9974727630615 2.5000019073486 35.964826583862 325.55172341378
50367	675162 5553 4500 9105 73.75 117.5 176 5.6500000953674 15.25 2188.6803674698 28804.941618428
50366	680715 5880 4475 9105 73.5 117.5 177 184.17810058594 483.14999389648 70758.987976074 30078833.396349
50365	686595 5904 4475 9105 73.5 117.5 177 486.85000610352 734.18586730957 94739.399871826 51704519.674715
50390	692499 5325 4882 9218 77.5 119 167 0.973 11.215635157955 539.35851059426 3104.6293777285
50389	697824 4961 4882 9218 77.5 119 167 -3.3109283447266 2.5 35.795072555542 335.77688184302
50388	702785 5310 4853 9218 77.25 119 168 5.6500000953674 15.045923233032 2179.5636100769 29420.044929288
50387	708095 5643 4824 9218 77 119 169 486.7392578125 785.82187652588 96677.70627594 57085046.795589
50386	713738 5638 4824 9218 77 119 169 237.41552734375 483.14999389648 73162.668029785 32634079.4949
vector 50491  IntersectionExampleScenario.node[40].veinsmobility  posx  ETV
vector 50492  IntersectionExampleScenario.node[40].veinsmobility  posy  ETV
50404	719530 5184 5246 9325 80.5 120.75 162 0.973 11.277171931546 521.35970812649 2896.8697253
50403	724714 5236 5246 9325 80.5 120.75 162 -3.2202377319336 2.5 36.98334312439 278.09237036223
50402	729950 5419 5213 9325 80.25 120.75 163 5.6500000953674 15.132128715515 2202.6067743301 30621.294993807
50401	735369 5462 5180 9325 80 120.75 164 184.17810058594 486.96655273438 65261.763275146 27770837.302488
50400	740831 5492 5180 9325 80 120.75 164 237.14855957031 486.85000610352 71262.236663818 31942952.789391
vector 50493  IntersectionExampleScenario.node[40].veinsmobility  speed  ETV
vector 50494  IntersectionExampleScenario.node[40].veinsmobility  acceleration  ETV
vector 50495  IntersectionExampleScenario.node[40].veinsmobility  co2emission  ETV
vector 50498  IntersectionExampleScenario.node[41].veinsmobility  posx  ETV
vector 50499  IntersectionExampleScenario.node[41].veinsmobility  posy  ETV
vector 50500  IntersectionExampleScenario.node[41].veinsmobility  speed  ETV
vector 50501  IntersectionExampleScenario.node[41].veinsmobility  acceleration  ETV
vector 50502  IntersectionExampleScenario.node[41].veinsmobility  co2emission  ETV
vector 50505  IntersectionExampleScenario.node[42].veinsmobility  posx  ETV
vector 50506  IntersectionExampleScenario.node[42].veinsmobility  posy  ETV
vector 50512  IntersectionExampleScenario.node[43].veinsmobility  posx  ETV
vector 50513  IntersectionExampleScenario.node[43].veinsmobility  posy  ETV
vector 50507  IntersectionExampleScenario.node[42].veinsmobility  speed  ETV
vector 50508  IntersectionExampleScenario.node[42].veinsmobility  acceleration  ETV
vector 50509  IntersectionExampleScenario.node[42].veinsmobility  co2emission  ETV
vector 50514  IntersectionExampleScenario.node[43].veinsmobility  speed  ETV
vector 50515  IntersectionExampleScenario.node[43].veinsmobility  acceleration  ETV
vector 50516  IntersectionExampleScenario.node[43].veinsmobility  co2emission  ETV
vector 50519  IntersectionExampleScenario.node[44].veinsmobility  posx  ETV
vector 50520  IntersectionExampleScenario.node[44].veinsmobility  posy  ETV
vector 50521  IntersectionExampleScenario.node[44].veinsmobility  speed  ETV
vector 50522  IntersectionExampleScenario.node[44].veinsmobility  acceleration  ETV
vector 50523  IntersectionExampleScenario.node[44].veinsmobility  co2emission  ETV
50418	748174 5142 6146 9845 88.25 127.5 158 0.973 11.648172402475 517.35974283693 2892.3207539431
50417	753316 4954 6146 9845 88.25 127.5 158 -3.4438762664795 2.5 39.699392318726 287.99143666708
50416	758270 5035 6119 9845 88 127.5 159 5.6500000953674 15.807525634766 2190.4446368217 31651.160039365
50415	763305 5380 6092 9845 87.75 127.5 160 486.78744506836 785.82187652588 91552.969169617 54119397.530875
50414	768685 5383 6092 9845 87.75 127.5 160 235.40417480469 483.14999389648 69180.67590332 30834965.356629
50376	774068 6418 4743 9978 76.25 129 212 0.973 11.810082123732 594.95155635165 3093.5831009386
50375	780486 6109 4743 9978 76.25 129 212 -7.9310374259949 4 40.038900375366 503.35553945348
50374	786595 6134 4716 9978 76 129 213 0 15.875 2184.5528041124 31461.167118275
50373	792729 7106 4691 9978 75.75 129 214 486.85000610352 734.86784362793 112272.56309509 59928765.814964
50372	799835 7173 4691 9978 75.75 129 214 486.63604736328 785.82187652588 118458.09902191 67517934.012088
50411	807008 5997 5447 10040 82 129.75 192 0.973 11.36141391502 544.31676973841 2743.6465058114
50410	813005 5692 5447 10040 82 129.75 192 -8.8170804977417 4 36.134572982788 474.74781230033
50409	818697 5869 5413 10040 81.75 129.75 193 0 15.25 2178.3661408424 29708.48817866
50408	824566 6460 5378 10040 81.5 129.75 194 236.32275390625 483.14999389648 85226.979553223 38465813.807772
50407	831026 6500 5378 10040 81.5 129.75 194 184.17810058594 483.36395263672 79220.588500977 34252877.281267
50383	837526 6843 4770 10059 76.5 130 215 0.973 11.990504229548 612.02833813524 3181.867576456
50382	844369 6759 4770 10059 76.5 130 215 -4.5 2.5000000745058 40.038900375366 474.34755092401
50381	851128 7079 4743 10059 76.25 130 216 0 16.125 2319.4701854084 33104.511347017
50380	858207 7283 4716 10059 76 130 217 486.85000610352 486.85000610352 105646.45132446 51433975.472129
50379	865490 7259 4716 10059 76 130 217 235.39947509766 810.23281097412 114448.52698517 65085614.235027
50397	872749 6685 5118 10227 79.5 132.25 212 0.973 11.990504229548 608.78150348794 3231.4304569702
50396	879434 6728 5118 10227 79.5 132.25 212 -4.3991432189941 2.5 39.699392318726 422.02118990877
50395	886162 6960 5087 10227 79.25 132.25 213 0 16.125 2317.3720053099 32553.331039796
50394	893122 7203 5056 10227 79 132.25 214 486.85000610352 486.85000610352 104185.90130615 50722906.6868
50393	900325 7168 5056 10227 79 132.25 214 236.51397705078 811.10418701172 113347.49064636 64707274.398349
50432	907493 5477 6396 10295 90.75 133.25 171 0.973 11.36141391502 537.1086241635 2975.8891961268
50431	912970 5261 6396 10295 90.75 133.25 171 -3.002836227417 2.5 37.15309715271 316.23003030441
50430	918231 5504 6369 10295 90.5 133.25 172 5.6500000953674 15.25 2188.015440464 29355.351988257
50429	923735 5853 6342 10295 90.25 133.25 173 235.80712890625 483.14999389648 75172.665222168 33638335.756649
50428	929588 5833 6342 10295 90.25 133.25 173 184.17810058594 483.14999389648 69058.910491943 29340101.882731
50425	935421 5536 6369 10363 90.5 134.25 176 0.973 11.990504229548 543.55133546023 3014.6350883932
50424	940957 5631 6369 10363 90.5 134.25 176 -2.8565826416016 2.5 39.699392318726 292.81152847614
50423	946588 5754 6342 10363 90.25 134.25 177 4.5615620613098 16.125 2211.8447785378 30088.782394033
50422	952342 6031 6317 10363 90 134.25 178 486.85000610352 486.85000610352 86659.301086426 42190081.262853
50421	958373 6008 6317 10363 90 134.25 178 238.33044433594 785.82187652588 93527.579811096 53208402.463947
vector 50526  IntersectionExampleScenario.node[45].veinsmobility  posx  ETV
vector 50527  IntersectionExampleScenario.node[45].veinsmobility  posy  ETV
vector 50528  IntersectionExampleScenario.node[45].veinsmobility  speed  ETV
vector 50529  IntersectionExampleScenario.node[45].veinsmobility  acceleration  ETV
vector 50530  IntersectionExampleScenario.node[45].veinsmobility  co2emission  ETV
vector 50533  IntersectionExampleScenario.node[46].veinsmobility  posx  ETV
vector 50534  IntersectionExampleScenario.node[46].veinsmobility  posy  ETV
50453	964936 5270 6996 10471 96 135.75 160 0.973 11.268057274499 481.69971783414 2597.2809694182
50452	970206 5065 6996 10471 96 135.75 160 -3.2738075256348 2.5 35.795072555542 219.68122724921
50451	975271 5267 6965 10471 95.75 135.75 161 5.6500000953674 15.119365692139 2219.9666824341 31120.950330801
50450	980538 5517 6934 10471 95.5 135.75 162 483.14999389648 483.14999389648 78270.29901123 37816294.489552
50449	986055 5489 6934 10471 95.5 135.75 162 184.17810058594 734.37672424316 72847.26776123 37055466.420113
vector 50535  IntersectionExampleScenario.node[46].veinsmobility  speed  ETV
vector 50536  IntersectionExampleScenario.node[46].veinsmobility  acceleration  ETV
vector 50537  IntersectionExampleScenario.node[46].veinsmobility  co2emission  ETV
vector 50540  IntersectionExampleScenario.node[47].veinsmobility  posx  ETV
vector 50541  IntersectionExampleScenario.node[47].veinsmobility  posy  ETV
vector 50542  IntersectionExampleScenario.node[47].veinsmobility  speed  ETV
vector 50543  IntersectionExampleScenario.node[47].veinsmobility  acceleration  ETV
vector 50544  IntersectionExampleScenario.node[47].veinsmobility  co2emission  ETV
50460	992192 5460 7754 11026 103 143.75 164 0.973 11.36141391502 494.67694573859 2587.31136307
50459	997652 5104 7754 11026 103 143.75 164 -3.1887378692627 2.5 36.304327011108 261.77328303124
50458	1002756 5335 7729 11026 102.75 143.75 165 5.6500000953674 15.25 2190.5121617317 30273.209102156
50457	1008091 5686 7704 11026 102.5 143.75 166 486.85000610352 735.03125 89395.390151978 49114805.624054
50456	1013777 5693 7704 11026 102.5 143.75 166 486.85000610352 785.82187652588 94943.519691467 56079740.416187
50439	1019470 6387 6562 11026 92.25 143.75 207 0.96333723109819 12.099024792222 592.85714034329 3226.7471610973
50438	1025857 6090 6562 11026 92.25 143.75 207 -7.7254076004028 4 40.208654403687 505.71872400704
50437	1031947 6182 6533 11026 92 143.75 208 0 16.27499961853 2194.6261763573 31832.664516019
50436	1038129 7110 6504 11026 91.75 143.75 209 184.17810058594 486.85000610352 87040.446716309 38206489.802672
50435	1045239 7131 6504 11026 91.75 143.75 209 238.72613525391 486.85000610352 93705.687347412 43032733.499924
vector 50547  IntersectionExampleScenario.node[48].veinsmobility  posx  ETV
vector 50548  IntersectionExampleScenario.node[48].veinsmobility  posy  ETV
vector 50549  IntersectionExampleScenario.node[48].veinsmobility  speed  ETV
vector 50550  IntersectionExampleScenario.node[48].veinsmobility  acceleration  ETV
vector 50551  IntersectionExampleScenario.node[48].veinsmobility  co2emission  ETV
50446	1052771 6529 6905 11138 95.25 145.25 201 0.973 11.648172402475 580.98126678214 2976.211538866
50445	1059300 6420 6905 11138 95.25 145.25 201 -4.5 2.5000009536743 39.529638290405 434.9821658263
50444	1065720 6868 6876 11138 95 145.25 202 0 15.64999961853 2268.7873038389 32241.284996121
50443	1072588 6910 6847 11138 94.75 145.25 203 171.40313720703 733.85733032227 90717.550109863 44940371.161595
50442	1079498 6945 6847 11138 94.75 145.25 203 486.85000610352 486.85000610352 98830.551239014 48115654.473927
vector 50554  IntersectionExampleScenario.node[49].veinsmobility  posx  ETV
vector 50555  IntersectionExampleScenario.node[49].veinsmobility  posy  ETV
vector 50556  IntersectionExampleScenario.node[49].veinsmobility  speed  ETV
vector 50557  IntersectionExampleScenario.node[49].veinsmobility  acceleration  ETV
vector 50558  IntersectionExampleScenario.node[49].veinsmobility  co2emission  ETV
50467	1086844 5626 8020 11428 105.75 148.75 173 0.973 11.36141391502 556.34381022147 3166.373829037
50466	1092470 5464 8020 11428 105.75 148.75 173 -3.8826808929443 2.5 36.98334312439 372.84945031463
50465	1097934 5675 7995 11428 105.5 148.75 174 5.6500000953674 15.25 2186.2607803345 29094.700362332
50464	1103609 5997 7970 11428 105.25 148.75 175 184.17810058594 483.18869018555 69842.185211182 29647335.415509
50463	1109606 6015 7970 11428 105.25 148.75 175 486.85000610352 733.7816619873 93606.095535278 51045255.762287
vector 50561  IntersectionExampleScenario.node[50].veinsmobility  posx  ETV
vector 50562  IntersectionExampleScenario.node[50].veinsmobility  posy  ETV
vector 50563  IntersectionExampleScenario.node[50].veinsmobility  speed  ETV
vector 50564  IntersectionExampleScenario.node[50].veinsmobility  acceleration  ETV
vector 50565  IntersectionExampleScenario.node[50].veinsmobility  co2emission  ETV
vector 50568  IntersectionExampleScenario.node[51].veinsmobility  posx  ETV
vector 50569  IntersectionExampleScenario.node[51].veinsmobility  posy  ETV
vector 50570  IntersectionExampleScenario.node[51].veinsmobility  speed  ETV
vector 50571  IntersectionExampleScenario.node[51].veinsmobility  acceleration  ETV
vector 50572  IntersectionExampleScenario.node[51].veinsmobility  co2emission  ETV
vector 50575  IntersectionExampleScenario.node[52].veinsmobility  posx  ETV
vector 50576  IntersectionExampleScenario.node[52].veinsmobility  posy  ETV
vector 50577  IntersectionExampleScenario.node[52].veinsmobility  speed  ETV
vector 50578  IntersectionExampleScenario.node[52].veinsmobility  acceleration  ETV
vector 50579  IntersectionExampleScenario.node[52].veinsmobility  co2emission  ETV
50474	1116824 5331 8785 11866 113.75 153.25 159 0.973 11.450879080643 490.45985768318 2597.5421255637
50473	1122155 5201 8785 11866 113.75 153.25 159 -3.4788398742676 2.5 37.32285118103 237.85299688229
50472	1127356 5248 8764 11866 113.5 153.25 160 5.6500000953674 15.375 2204.7897720337 31223.130890358
50471	1132604 5546 8743 11866 113.25 153.25 161 184.17810058594 486.86306762695 64059.171417236 27278819.491551
50470	1138150 5562 8743 11866 113.25 153.25 161 237.44818115234 486.85000610352 69883.645080566 31298092.183444
vector 50582  IntersectionExampleScenario.node[53].veinsmobility  posx  ETV
vector 50583  IntersectionExampleScenario.node[53].veinsmobility  posy  ETV
vector 50584  IntersectionExampleScenario.node[53].veinsmobility  speed  ETV
vector 50585  IntersectionExampleScenario.node[53].veinsmobility  acceleration  ETV
vector 50586  IntersectionExampleScenario.node[53].veinsmobility  co2emission  ETV
50488	1144113 5481 8983 12206 116 156.25 162 0.973 11.200708441096 476.2241829125 2383.8574420447
50487	1149594 5275 8983 12206 116 156.25 162 -3.6446800231934 2.5 35.795072555542 223.71671762673
50486	1154869 5371 8960 12206 115.75 156.25 163 5.6500000953674 15.02499961853 2210.34004879 30721.137147889
50485	1160240 5676 8937 12206 115.5 156.25 164 483.12014770508 785.82187652588 93730.439002991 55383991.18577
50484	1165916 5681 8937 12206 115.5 156.25 164 483.14999389648 734.14279174805 88059.265670776 48285404.360048
50481	1171597 5817 8831 12264 114.25 156.75 171 0.973 10.65035628006 462.25119934022 1980.8687619517
50480	1177414 5146 8831 12264 114.25 156.75 171 -3.2741584777832 2.5 34.267293930054 148.90182336161
50479	1182560 5758 8808 12264 114 156.75 172 5.6500000953674 14.685112953186 2313.7224960327 31648.129959036
50478	1188318 5967 8785 12264 113.75 156.75 173 160.43438720703 734.12731933594 75533.488311768 38022900.852149
50477	1194285 5993 8785 12264 113.75 156.75 173 486.85000610352 486.85000610352 84225.051055908 41004966.620638
vector 50589  IntersectionExampleScenario.node[54].veinsmobility  posx  ETV
vector 50590  IntersectionExampleScenario.node[54].veinsmobility  posy  ETV
vector 50591  IntersectionExampleScenario.node[54].veinsmobility  speed  ETV
vector 50592  IntersectionExampleScenario.node[54].veinsmobility  acceleration  ETV
vector 50593  IntersectionExampleScenario.node[54].veinsmobility  co2emission  ETV
vector 50596  IntersectionExampleScenario.node[55].veinsmobility  posx  ETV
vector 50597  IntersectionExampleScenario.node[55].veinsmobility  posy  ETV
vector 50598  IntersectionExampleScenario.node[55].veinsmobility  speed  ETV
vector 50599  IntersectionExampleScenario.node[55].veinsmobility  acceleration  ETV
vector 50600  IntersectionExampleScenario.node[55].veinsmobility  co2emission  ETV
50502	1201080 6490 9516 13855 123.5 174.5 205 0.973 12.353032912318 605.72362753381 3296.1985176326
50501	1207570 6191 9516 13855 123.5 174.5 205 -8.5108489990234 4 41.736440658569 541.25387732364
50500	1213761 6221 9497 13855 123.25 174.5 206 0 16.625 2199.4652769566 32600.75659659
50499	1219982 7210 9478 13855 123 174.5 207 483.14999389648 785.82187652588 114571.21303558 65360817.663505
50498	1227192 7212 9478 13855 123 174.5 207 483.14999389648 732.46731567383 107947.75958252 57306116.501615
50495	1234404 6943 9359 13917 121.25 175.5 218 0.973 11.450879080643 585.19006394264 2782.3969319868
50494	1241347 6480 9359 13917 121.25 175.5 218 -35.753185272217 4 37.15309715271 1627.7310709876
50493	1247827 6599 9342 13917 121 175.5 219 0 15.375 2209.7631597519 31298.511720881
50492	1254426 7639 9325 13917 120.75 175.5 220 184.17810058594 733.24285888672 100149.8314209 49821109.204899
50491	1262065 7665 9325 13917 120.75 175.5 220 486.85000610352 486.85000610352 107107.00134277 52145044.257458
vector 50603  IntersectionExampleScenario.node[56].veinsmobility  posx  ETV
vector 50604  IntersectionExampleScenario.node[56].veinsmobility  posy  ETV
vector 50605  IntersectionExampleScenario.node[56].veinsmobility  speed  ETV
vector 50606  IntersectionExampleScenario.node[56].veinsmobility  acceleration  ETV
vector 50607  IntersectionExampleScenario.node[56].veinsmobility  co2emission  ETV
50509	1270131 6624 9731 13987 126.25 176.75 203 0.973 11.200708441096 549.53355453317 2661.8252984803
50508	1276755 6635 9731 13987 126.25 176.75 203 -3.8345351219177 2.5000009536743 35.964826583862 345.47978532522
50507	1283390 6988 9708 13987 126 176.75 204 0 15.02499961853 2264.3459538557 30249.177279993
50506	1290378 7137 9687 13987 125.75 176.75 205 238.55126953125 800.04531860352 107619.58985138 61058068.025715
50505	1297515 7161 9687 13987 125.75 176.75 205 483.14999389648 483.14999389648 99045.748748779 47853952.903445
50516	1304676 6744 9754 14078 126.5 178.5 209 0.973 11.200708441096 557.98291900352 2671.570039144
50515	1311420 6938 9754 14078 126.5 178.5 209 -3.8565077781677 2.5000004768372 36.643835067749 336.3998307591
50514	1318358 7157 9731 14078 126.25 178.5 210 0 15.02499961853 2223.2758586966 29512.871683359
50513	1325515 7334 9708 14078 126 178.5 211 184.17810058594 735.39530944824 95337.233566284 47360384.655488
50512	1332849 7370 9708 14078 126 178.5 211 486.85000610352 486.85000610352 102725.35128784 50011837.901471
50523	1340219 6987 9822 14181 127.25 181 216 0.973 11.810082123732 610.27571390713 3106.7480310097
50522	1347206 6991 9822 14181 127.25 181 216 -4.5 2.5000004768372 39.359884262085 527.8423903068
50521	1354197 7248 9799 14181 127 181 217 0 15.875 2274.9293318987 30501.454824604
50520	1361445 7586 9776 14181 126.75 181 218 161.1796875 483.14999389648 87443.522857666 37339107.126357
50519	1369031 7610 9776 14181 126.75 181 218 486.85000610352 733.06056213379 114182.61061096 60825516.172947
50551	1376641 5257 11081 14235 144.5 182.5 153 0.97223939240464 11.648172402475 471.44798891457 2387.4715259443
50550	1381898 4835 11081 14235 144.5 182.5 153 -3.5467910766602 2.5 38.680875778198 191.43641867058
50549	1386733 5173 11062 14235 144.25 182.5 154 5.6500000953674 15.64999961853 2208.7529230118 32332.208880463
50548	1391906 5415 11043 14235 144 182.5 155 238.7685546875 785.82187652588 80976.458778381 46385795.318681
50547	1397321 5424 11043 14235 144 182.5 155 483.14999389648 483.14999389648 74888.249053955 36182257.073337
50530	1402745 6129 10452 14244 135.5 182.75 190 0.973 11.648172402475 555.38820270405 2915.5257552136
50529	1408874 6077 10452 14244 135.5 182.75 190 -4.5 2.5 38.511121749878 382.02165435431
50528	1414951 6468 10433 14244 135.25 182.75 191 0 15.64999961853 2223.624629885 29812.487141647
50527	1421419 6688 10414 14244 135 182.75 192 184.17810058594 734.73681640625 85891.841751099 42607375.207027
50526	1428107 6720 10414 14244 135 182.75 192 486.85000610352 486.85000610352 93475.201171875 45508402.261055
vector 50610  IntersectionExampleScenario.node[57].veinsmobility  posx  ETV
vector 50611  IntersectionExampleScenario.node[57].veinsmobility  posy  ETV
vector 50612  IntersectionExampleScenario.node[57].veinsmobility  speed  ETV
vector 50613  IntersectionExampleScenario.node[57].veinsmobility  acceleration  ETV
vector 50614  IntersectionExampleScenario.node[57].veinsmobility  co2emission  ETV
vector 50617  IntersectionExampleScenario.node[58].veinsmobility  posx  ETV
vector 50618  IntersectionExampleScenario.node[58].veinsmobility  posy  ETV
vector 50619  IntersectionExampleScenario.node[58].veinsmobility  speed  ETV
vector 50620  IntersectionExampleScenario.node[58].veinsmobility  acceleration  ETV
vector 50621  IntersectionExampleScenario.node[58].veinsmobility  co2emission  ETV
50558	1435629 5526 11218 14396 146.25 186.25 161 0.973 11.54047740176 473.71538730156 2352.9611662068
50557	1441155 4903 11218 14396 146.25 186.25 161 -3.5015678405762 2.5 37.492597579956 182.66837744939
50556	1446058 5439 11197 14396 146 186.25 162 5.6500000953674 15.5 2296.8871717453 33156.673076617
50555	1451497 5673 11176 14396 145.75 186.25 163 235.95294189453 805.05782318115 86441.367492676 50484675.202331
50554	1457170 5705 11176 14396 145.75 186.25 163 483.14999389648 483.14999389648 78753.449005127 38049728.406154
vector 50624  IntersectionExampleScenario.node[59].veinsmobility  posx  ETV
vector 50625  IntersectionExampleScenario.node[59].veinsmobility  posy  ETV
vector 50631  IntersectionExampleScenario.node[60].veinsmobility  posx  ETV
vector 50632  IntersectionExampleScenario.node[60].veinsmobility  posy  ETV
vector 50626  IntersectionExampleScenario.node[59].veinsmobility  speed  ETV
vector 50638  IntersectionExampleScenario.node[61].veinsmobility  posx  ETV
vector 50639  IntersectionExampleScenario.node[61].veinsmobility  posy  ETV
vector 50627  IntersectionExampleScenario.node[59].veinsmobility  acceleration  ETV
vector 50628  IntersectionExampleScenario.node[59].veinsmobility  co2emission  ETV
vector 50633  IntersectionExampleScenario.node[60].veinsmobility  speed  ETV
50537	1463662 6986 10513 14644 136.25 191 220 0.973 11.648172402475 605.65847016204 3016.7424443154
50536	1470648 6051 10513 14644 136.25 191 220 -32.21070098877 4 39.699392318726 1411.5912771896
50535	1476699 6591 10492 14644 136 191 221 0 15.64999961853 2202.7885856628 32136.462351908
50534	1483290 7767 10471 14644 135.75 191 222 236.75463867188 486.85000610352 99841.497039795 45968579.789502
50533	1491057 7762 10471 14644 135.75 191 222 483.14999389648 785.82187652588 122199.43308258 69272969.261784
vector 50634  IntersectionExampleScenario.node[60].veinsmobility  acceleration  ETV
vector 50635  IntersectionExampleScenario.node[60].veinsmobility  co2emission  ETV
vector 50640  IntersectionExampleScenario.node[61].veinsmobility  speed  ETV
vector 50641  IntersectionExampleScenario.node[61].veinsmobility  acceleration  ETV
vector 50642  IntersectionExampleScenario.node[61].veinsmobility  co2emission  ETV
50544	1499235 6298 11026 14677 143.75 191.5 192 0.973 11.200708441096 542.96140271611 2657.3338963224
50543	1505533 5766 11026 14677 143.75 191.5 192 -7.5492105484009 4 35.964826583862 464.95118037559
50542	1511299 6170 11009 14677 143.5 191.5 193 0 15.02499961853 2180.5861537457 29808.471098454
50541	1517469 6789 10992 14677 143.25 191.5 194 483.14999389648 733.02844238281 102446.12110901 55160890.616659
50540	1524258 6760 10992 14677 143.25 191.5 194 184.17810058594 486.85000610352 79449.207824707 34478373.613825
vector 50645  IntersectionExampleScenario.node[62].veinsmobility  posx  ETV
vector 50646  IntersectionExampleScenario.node[62].veinsmobility  posy  ETV
50565	1531172 5743 11495 14767 149.5 193 175 0.973 11.200708441096 536.33878245868 2790.2965710027
50564	1536915 5688 11495 14767 149.5 193 175 -3.0987854003906 2.5 39.020376205444 315.13755648092
50563	1542603 5850 11472 14767 149.25 193 176 2.9998376369476 15.457260131836 2180.9129152298 29928.232378736
50562	1548453 6171 11449 14767 149 193 177 237.85656738281 483.14999389648 77472.645782471 34853918.581151
50561	1554624 6160 11449 14767 149 193 177 184.17810058594 483.14999389648 71192.393188477 30414172.397128
vector 50647  IntersectionExampleScenario.node[62].veinsmobility  speed  ETV
vector 50648  IntersectionExampleScenario.node[62].veinsmobility  acceleration  ETV
vector 50649  IntersectionExampleScenario.node[62].veinsmobility  co2emission  ETV
vector 50652  IntersectionExampleScenario.node[63].veinsmobility  posx  ETV
vector 50653  IntersectionExampleScenario.node[63].veinsmobility  posy  ETV
vector 50659  IntersectionExampleScenario.node[64].veinsmobility  posx  ETV
vector 50660  IntersectionExampleScenario.node[64].veinsmobility  posy  ETV
vector 50654  IntersectionExampleScenario.node[63].veinsmobility  speed  ETV
vector 50655  IntersectionExampleScenario.node[63].veinsmobility  acceleration  ETV
vector 50656  IntersectionExampleScenario.node[63].veinsmobility  co2emission  ETV
vector 50661  IntersectionExampleScenario.node[64].veinsmobility  speed  ETV
vector 50662  IntersectionExampleScenario.node[64].veinsmobility  acceleration  ETV
vector 50663  IntersectionExampleScenario.node[64].veinsmobility  co2emission  ETV
50586	1561833 5436 12032 14919 154.75 195.25 163 0.973 11.648172402475 567.66179032879 3470.6167913999
50585	1567269 5181 12032 14919 154.75 195.25 163 -3.8387603759766 2.5 39.020376205444 381.09630275632
50584	1572450 5422 12003 14919 154.5 195.25 164 5.6500000953674 15.64999961853 2182.6472263336 30482.96825511
50583	1577872 5773 11974 14919 154.25 195.25 165 486.85000610352 732.69441223145 88412.836029053 48297484.357886
50582	1583645 5760 11974 14919 154.25 195.25 165 486.68807983398 785.82187652588 94397.283546448 55742878.494984
50572	1589405 5978 11660 14995 151.25 196.25 181 0.973 11.648172402475 554.49912780523 3016.4863937852
50571	1595383 5952 11660 14995 151.25 196.25 181 -4.5 2.5 37.662351608276 365.70744487184
50570	1601335 6043 11635 14995 151 196.25 182 5.4281301498413 15.64999961853 2252.0030837059 30050.338034287
50569	1607378 6401 11610 14995 150.75 196.25 183 238.43780517578 483.14999389648 80244.871643066 36151050.056553
50568	1613779 6382 11610 14995 150.75 196.25 183 164.94219970703 483.14999389648 71847.816925049 30274146.971916
vector 50666  IntersectionExampleScenario.node[65].veinsmobility  posx  ETV
vector 50667  IntersectionExampleScenario.node[65].veinsmobility  posy  ETV
vector 50668  IntersectionExampleScenario.node[65].veinsmobility  speed  ETV
vector 50673  IntersectionExampleScenario.node[66].veinsmobility  posx  ETV
vector 50674  IntersectionExampleScenario.node[66].veinsmobility  posy  ETV
vector 50669  IntersectionExampleScenario.node[65].veinsmobility  acceleration  ETV
vector 50670  IntersectionExampleScenario.node[65].veinsmobility  co2emission  ETV
vector 50675  IntersectionExampleScenario.node[66].veinsmobility  speed  ETV
vector 50676  IntersectionExampleScenario.node[66].veinsmobility  acceleration  ETV
vector 50677  IntersectionExampleScenario.node[66].veinsmobility  co2emission  ETV
vector 50680  IntersectionExampleScenario.node[67].veinsmobility  posx  ETV
vector 50681  IntersectionExampleScenario.node[67].veinsmobility  posy  ETV
vector 50687  IntersectionExampleScenario.node[68].veinsmobility  posx  ETV
vector 50688  IntersectionExampleScenario.node[68].veinsmobility  posy  ETV
vector 50682  IntersectionExampleScenario.node[67].veinsmobility  speed  ETV
vector 50689  IntersectionExampleScenario.node[68].veinsmobility  speed  ETV
vector 50683  IntersectionExampleScenario.node[67].veinsmobility  acceleration  ETV
vector 50684  IntersectionExampleScenario.node[67].veinsmobility  co2emission  ETV
vector 50690  IntersectionExampleScenario.node[68].veinsmobility  acceleration  ETV
vector 50691  IntersectionExampleScenario.node[68].veinsmobility  co2emission  ETV
vector 50694  IntersectionExampleScenario.node[69].veinsmobility  posx  ETV
vector 50695  IntersectionExampleScenario.node[69].veinsmobility  posy  ETV
vector 50696  IntersectionExampleScenario.node[69].veinsmobility  speed  ETV
vector 50697  IntersectionExampleScenario.node[69].veinsmobility  acceleration  ETV
vector 50698  IntersectionExampleScenario.node[69].veinsmobility  co2emission  ETV
50579	1622166 6938 11839 15921 153 207 217 0.973 11.200708441096 569.07127713397 2705.2911737353
50578	1629104 6327 11839 15921 153 207 217 -8.6544380187988 4 35.795072555542 478.35016826786
50577	1635431 6747 11812 15921 152.75 207 218 0 15.02499961853 2218.0963425636 30381.5057129
50576	1642178 7642 11785 15921 152.5 207 219 184.17810058594 735.35032653809 99853.58581543 49862769.380166
50575	1649820 7664 11785 15921 152.5 207 219 486.85000610352 486.85000610352 106620.15133667 51908021.329015
50593	1657484 6134 12660 16002 160.25 207.75 191 0.973 11.810082123732 546.52874348912 2878.5552577343
50592	1663618 6361 12660 16002 160.25 207.75 191 -2.5207977294922 2.5000009536743 38.680875778198 312.7265772774
50591	1669979 6390 12633 16002 160 207.75 192 1.430757522583 15.875 2178.3729029894 29179.748616041
50590	1676369 6728 12606 16002 159.75 207.75 193 184.17810058594 483.14999389648 78365.697418213 33639138.153818
50589	1683097 6751 12606 16002 159.75 207.75 193 486.85000610352 731.75485229492 102013.29177856 54894981.331765
vector 50701  IntersectionExampleScenario.node[70].veinsmobility  posx  ETV
vector 50702  IntersectionExampleScenario.node[70].veinsmobility  posy  ETV
50600	1690002 6446 12840 16296 162 210.5 195 0.973 11.648172402475 564.25645615025 2922.3691551289
50599	1696448 6294 12840 16296 162 210.5 195 -4.5 2.5 38.341367721558 344.22049249213
50598	1702742 6535 12813 16296 161.75 210.5 196 3.9531810283661 15.64999961853 2261.7383458614 29696.830429433
50597	1709277 6877 12786 16296 161.5 210.5 197 164.94219970703 483.14999389648 77976.640258789 32952360.655331
50596	1716154 6882 12786 16296 161.5 210.5 197 486.85000610352 733.48631286621 104122.41123962 56036062.937475
vector 50703  IntersectionExampleScenario.node[70].veinsmobility  speed  ETV
vector 50704  IntersectionExampleScenario.node[70].veinsmobility  acceleration  ETV
vector 50705  IntersectionExampleScenario.node[70].veinsmobility  co2emission  ETV
vector 50708  IntersectionExampleScenario.node[71].veinsmobility  posx  ETV
vector 50709  IntersectionExampleScenario.node[71].veinsmobility  posy  ETV
vector 50710  IntersectionExampleScenario.node[71].veinsmobility  speed  ETV
vector 50711  IntersectionExampleScenario.node[71].veinsmobility  acceleration  ETV
vector 50712  IntersectionExampleScenario.node[71].veinsmobility  co2emission  ETV
vector 50715  IntersectionExampleScenario.node[72].veinsmobility  posx  ETV
vector 50716  IntersectionExampleScenario.node[72].veinsmobility  posy  ETV
vector 50717  IntersectionExampleScenario.node[72].veinsmobility  speed  ETV
vector 50718  IntersectionExampleScenario.node[72].veinsmobility  acceleration  ETV
vector 50719  IntersectionExampleScenario.node[72].veinsmobility  co2emission  ETV
vector 50722  IntersectionExampleScenario.node[73].veinsmobility  posx  ETV
vector 50723  IntersectionExampleScenario.node[73].veinsmobility  posy  ETV
vector 50724  IntersectionExampleScenario.node[73].veinsmobility  speed  ETV
vector 50725  IntersectionExampleScenario.node[73].veinsmobility  acceleration  ETV
vector 50726  IntersectionExampleScenario.node[73].veinsmobility  co2emission  ETV
50607	1724486 6114 13973 17547 176.5 222.5 185 0.973 11.36141391502 547.63595336068 2775.058869378
50606	1730600 5451 13973 17547 176.5 222.5 185 -6.9984560012817 4 37.492597579956 464.16787638419
50605	1736051 5965 13958 17547 176.25 222.5 186 0 15.25 2181.7715444565 30316.950896757
50604	1742016 6477 13943 17547 176 222.5 187 235.78491210938 483.14999389648 81984.73538208 36945438.404583
50603	1748493 6520 13943 17547 176 222.5 187 184.17810058594 483.36395263672 76082.57019043 32822793.470325
vector 50729  IntersectionExampleScenario.node[74].veinsmobility  posx  ETV
vector 50730  IntersectionExampleScenario.node[74].veinsmobility  posy  ETV
vector 50731  IntersectionExampleScenario.node[74].veinsmobility  speed  ETV
vector 50732  IntersectionExampleScenario.node[74].veinsmobility  acceleration  ETV
vector 50733  IntersectionExampleScenario.node[74].veinsmobility  co2emission  ETV
vector 50736  IntersectionExampleScenario.node[75].veinsmobility  posx  ETV
vector 50737  IntersectionExampleScenario.node[75].veinsmobility  posy  ETV
vector 50738  IntersectionExampleScenario.node[75].veinsmobility  speed  ETV
vector 50743  IntersectionExampleScenario.node[76].veinsmobility  posx  ETV
vector 50744  IntersectionExampleScenario.node[76].veinsmobility  posy  ETV
vector 50739  IntersectionExampleScenario.node[75].veinsmobility  acceleration  ETV
vector 50740  IntersectionExampleScenario.node[75].veinsmobility  co2emission  ETV
vector 50745  IntersectionExampleScenario.node[76].veinsmobility  speed  ETV
50621	1756047 5317 14396 17873 186.25 226.25 161 0.973 12.099024792222 565.615152398 3522.5137396314
50620	1761364 5050 14396 17873 186.25 226.25 161 -3.265552520752 2.5 40.038900375366 356.25136238832
50619	1766414 5352 14383 17873 186 226.25 162 5.6500000953674 16.27499961853 2177.9009389877 30794.06773983
50618	1771766 5701 14370 17873 185.75 226.25 163 238.36596679688 483.14999389648 70856.925567627 31700939.216626
50617	1777467 5678 14370 17873 185.75 226.25 163 184.17810058594 483.21231079102 64849.10369873 27520750.230755
vector 50746  IntersectionExampleScenario.node[76].veinsmobility  acceleration  ETV
vector 50747  IntersectionExampleScenario.node[76].veinsmobility  co2emission  ETV
vector 50750  IntersectionExampleScenario.node[77].veinsmobility  posx  ETV
vector 50751  IntersectionExampleScenario.node[77].veinsmobility  posy  ETV
vector 50752  IntersectionExampleScenario.node[77].veinsmobility  speed  ETV
vector 50753  IntersectionExampleScenario.node[77].veinsmobility  acceleration  ETV
vector 50754  IntersectionExampleScenario.node[77].veinsmobility  co2emission  ETV
50642	1783715 5076 14677 18092 191.5 228.5 149 0.973 12.099024792222 488.62484249694 2757.5086340594
50641	1788791 4745 14677 18092 191.5 228.5 149 -3.7545013427734 2.5 41.057416915894 220.15217257783
50640	1793536 5000 14661 18092 191.25 228.5 150 5.6500000953674 16.27499961853 2213.4851608276 33462.211538049
50639	1798536 5284 14644 18092 191 228.5 151 486.85000610352 486.85000610352 73514.350921631 35790462.194892
50638	1803820 5267 14644 18092 191 228.5 151 237.86114501953 785.82187652588 78947.529411316 45267720.009847
vector 50757  IntersectionExampleScenario.node[78].veinsmobility  posx  ETV
vector 50758  IntersectionExampleScenario.node[78].veinsmobility  posy  ETV
vector 50759  IntersectionExampleScenario.node[78].veinsmobility  speed  ETV
vector 50760  IntersectionExampleScenario.node[78].veinsmobility  acceleration  ETV
vector 50761  IntersectionExampleScenario.node[78].veinsmobility  co2emission  ETV
vector 50764  IntersectionExampleScenario.node[79].veinsmobility  posx  ETV
vector 50765  IntersectionExampleScenario.node[79].veinsmobility  posy  ETV
vector 50766  IntersectionExampleScenario.node[79].veinsmobility  speed  ETV
50635	1809720 5279 14661 18227 191.25 229.75 155 0.973 11.648172402475 471.31768619407 2498.1363213408
50634	1814999 5189 14661 18227 191.25 229.75 155 -3.2576446533203 2.5 38.001859664917 193.35080240044
50633	1820188 5223 14644 18227 191 229.75 156 5.6500000953674 15.64999961853 2223.7887859344 32317.127169241
50632	1825411 5496 14629 18227 190.75 229.75 157 483.14999389648 483.14999389648 75854.549041748 36649124.906541
50631	1830907 5459 14629 18227 190.75 229.75 157 184.17810058594 734.90365600586 70570.819869995 35911128.399038
vector 50767  IntersectionExampleScenario.node[79].veinsmobility  acceleration  ETV
vector 50768  IntersectionExampleScenario.node[79].veinsmobility  co2emission  ETV
vector 50771  IntersectionExampleScenario.node[80].veinsmobility  posx  ETV
vector 50772  IntersectionExampleScenario.node[80].veinsmobility  posy  ETV
vector 50778  IntersectionExampleScenario.node[81].veinsmobility  posx  ETV
vector 50779  IntersectionExampleScenario.node[81].veinsmobility  posy  ETV
vector 50773  IntersectionExampleScenario.node[80].veinsmobility  speed  ETV
vector 50785  IntersectionExampleScenario.node[82].veinsmobility  posx  ETV
vector 50786  IntersectionExampleScenario.node[82].veinsmobility  posy  ETV
vector 50774  IntersectionExampleScenario.node[80].veinsmobility  acceleration  ETV
vector 50775  IntersectionExampleScenario.node[80].veinsmobility  co2emission  ETV
vector 50780  IntersectionExampleScenario.node[81].veinsmobility  speed  ETV
50656	1837322 5344 14900 18725 195 234 157 0.973 11.90022389248 504.95605604094 2791.1806947308
50655	1842666 4818 14900 18725 195 234 157 -3.2578239440918 2.5 39.869146347046 241.07455104415
50654	1847484 5231 14881 18725 194.75 234 158 5.6500000953674 16 2244.4426832199 32929.06409905
50653	1852715 5561 14864 18725 194.5 234 159 483.14999389648 734.14935302734 85098.384246826 46497792.981674
50652	1858276 5542 14864 18725 194.5 234 159 176.21716308594 486.85000610352 62794.57510376 26678213.370023
vector 50781  IntersectionExampleScenario.node[81].veinsmobility  acceleration  ETV
vector 50782  IntersectionExampleScenario.node[81].veinsmobility  co2emission  ETV
vector 50787  IntersectionExampleScenario.node[82].veinsmobility  speed  ETV
50649	1864065 5595 14801 18758 193.5 234.25 164 0.973 11.450879080643 494.07882117073 2535.8289357763
50648	1869660 5380 14801 18758 193.5 234.25 164 -3.2717742919922 2.5 37.32285118103 222.3188201068
50647	1875040 5490 14784 18758 193.25 234.25 165 5.6500000953674 15.375 2279.8185825348 32365.270053518
50646	1880530 5798 14767 18758 193 234.25 166 236.92065429688 486.85000610352 72280.50692749 32455787.080223
50645	1886328 5795 14767 18758 193 234.25 166 483.14999389648 803.92188262939 96119.404838562 57733737.294454
vector 50788  IntersectionExampleScenario.node[82].veinsmobility  acceleration  ETV
vector 50789  IntersectionExampleScenario.node[82].veinsmobility  co2emission  ETV
50614	1892292 6867 14293 19185 184 237.5 215 0.973 11.36141391502 574.23815533052 2805.2216608535
50613	1899159 6566 14293 19185 184 237.5 215 -7.4920473098755 4 36.98334312439 503.25362798135
50612	1905725 6581 14282 19185 183.75 237.5 216 0 15.25 2175.1300499439 30153.508937899
50611	1912306 7557 14271 19185 183.5 237.5 217 184.17810058594 483.36395263672 90194.028564453 39468821.34305
50610	1919863 7528 14271 19185 183.5 237.5 217 486.85000610352 732.63011169434 113970.29968262 60899656.015711
vector 50792  IntersectionExampleScenario.node[83].veinsmobility  posx  ETV
vector 50793  IntersectionExampleScenario.node[83].veinsmobility  posy  ETV
vector 50794  IntersectionExampleScenario.node[83].veinsmobility  speed  ETV
vector 50795  IntersectionExampleScenario.node[83].veinsmobility  acceleration  ETV
vector 50796  IntersectionExampleScenario.node[83].veinsmobility  co2emission  ETV
50628	1927792 6530 14644 19495 191 240.25 198 0.973 11.200708441096 546.88643893832 2615.5982632984
50627	1934322 6259 14644 19495 191 240.25 198 -7.2424693107605 4 35.455564498901 451.67015803904
50626	1940581 6686 14629 19495 190.75 240.25 199 0 15.02499961853 2196.9657233879 29666.102234374
50625	1947267 6986 14616 19495 190.5 240.25 200 483.14999389648 785.82187652588 111745.21163177 64406953.453585
50624	1954253 6973 14616 19495 190.5 240.25 200 483.14999389648 732.54861450195 105410.37489319 56628759.327624
50663	1961226 5992 14919 19495 195.25 240.25 181 0.973 11.810082123732 558.8550475992 2945.837557898
50662	1967218 5876 14919 19495 195.25 240.25 181 -4.5 2.5 39.869146347046 418.16958985063
50661	1973094 6082 14900 19495 195 240.25 182 0.625832259655 15.875 2205.7376664877 31097.470139928
50660	1979176 6388 14881 19495 194.75 240.25 183 486.85000610352 790.18281555176 103642.31743622 60577329.644858
50659	1985564 6403 14881 19495 194.75 240.25 183 235.78723144531 483.14999389648 80354.9140625 36253399.953924
vector 50799  IntersectionExampleScenario.node[84].veinsmobility  posx  ETV
vector 50800  IntersectionExampleScenario.node[84].veinsmobility  posy  ETV
vector 50801  IntersectionExampleScenario.node[84].veinsmobility  speed  ETV
50670	1992199 5506 15398 19740 201.5 242.5 165 0.973 11.648172402475 565.04421707846 3319.7709218751
50669	1997705 5296 15398 19740 201.5 242.5 165 -3.6840915679932 2.5 38.511121749878 375.25056991995
50668	2003001 5497 15377 19740 201.25 242.5 166 5.6500000953674 15.64999961853 2186.2032103539 30199.736329917
50667	2008498 5822 15356 19740 201 242.5 167 184.17810058594 483.14999389648 66518.682434082 28242241.82319
50666	2014320 5837 15356 19740 201 242.5 167 486.85000610352 733.8748626709 89534.347335815 48945694.453805
vector 50802  IntersectionExampleScenario.node[84].veinsmobility  acceleration  ETV
vector 50803  IntersectionExampleScenario.node[84].veinsmobility  co2emission  ETV
vector 50806  IntersectionExampleScenario.node[85].veinsmobility  posx  ETV
vector 50807  IntersectionExampleScenario.node[85].veinsmobility  posy  ETV
vector 50808  IntersectionExampleScenario.node[85].veinsmobility  speed  ETV
vector 50809  IntersectionExampleScenario.node[85].veinsmobility  acceleration  ETV
vector 50810  IntersectionExampleScenario.node[85].veinsmobility  co2emission  ETV
50705	2020727 5338 16350 20637 211 250 157 0.973 11.648172402475 492.28859103048 2671.8686325509
50704	2026065 5126 16350 20637 211 250 157 -3.3959465026855 2.5 38.341367721558 236.65347081508
50703	2031191 5246 16323 20637 210.75 250 158 5.6500000953674 15.64999961853 2205.5605573654 31716.089413264
50702	2036437 5558 16296 20637 210.5 250 159 483.14999389648 785.82187652588 90936.251625061 53783435.198787
50701	2041995 5554 16296 20637 210.5 250 159 483.14999389648 732.48181152344 85186.835449219 46589328.938283
50691	2047549 6241 15817 20997 206 253.5 191 0.973 11.450879080643 555.92555687836 2853.2259941244
50690	2053790 6019 15817 20997 206 253.5 191 -9.0641355514526 4 37.15309715271 489.27124356164
50689	2059809 6163 15792 20997 205.75 253.5 192 0 15.375 2212.5306403637 30825.566917945
50688	2065972 6755 15766 20997 205.5 253.5 193 483.14999389648 483.14999389648 93247.948822021 45052745.904219
50687	2072727 6729 15766 20997 205.5 253.5 193 184.17810058594 733.24285888672 87386.304977417 43782054.841431
50677	2079456 6653 15444 20997 202 253.5 207 0.973 11.450879080643 569.41845311784 2811.1615035374
50676	2086109 6051 15444 20997 202 253.5 207 -7.3439340591431 4 37.32285118103 468.21975753043
50675	2092160 6459 15421 20997 201.75 253.5 208 0 15.375 2201.1615531445 30669.924930393
50674	2098619 7309 15398 20997 201.5 253.5 209 236.78112792969 486.85000610352 93210.65737915 42645498.906678
50673	2105928 7303 15398 20997 201.5 253.5 209 483.14999389648 785.82187652588 116041.9212265 66416290.182765
vector 50813  IntersectionExampleScenario.node[86].veinsmobility  posx  ETV
vector 50814  IntersectionExampleScenario.node[86].veinsmobility  posy  ETV
vector 50815  IntersectionExampleScenario.node[86].veinsmobility  speed  ETV
vector 50816  IntersectionExampleScenario.node[86].veinsmobility  acceleration  ETV
vector 50817  IntersectionExampleScenario.node[86].veinsmobility  co2emission  ETV
50684	2113632 6515 15817 21131 206 255 197 0.973 11.36141391502 556.78144377736 2777.3091546984
50683	2120147 6376 15817 21131 206 255 197 -4.5 2.5000009536743 37.832105636597 417.84279765146
50682	2126523 6628 15792 21131 205.75 255 198 0 15.25 2207.0972968508 30266.627581418
50681	2133151 6953 15766 21131 205.5 255 199 486.85000610352 732.77085876465 105117.66931152 56530466.798412
50680	2140104 6953 15766 21131 205.5 255 199 486.69497680664 792.02188110352 112064.02992249 65084077.790078
50698	2147057 6433 15921 21150 207 255.25 194 0.973 11.200708441096 572.14868939613 2813.9181805336
50697	2153490 5859 15921 21150 207 255.25 194 -4.5 2.5 38.511121749878 467.20866422814
50696	2159349 6477 15894 21150 206.75 255.25 195 0 15.321306228638 2302.3996162415 32499.545517916
50695	2165826 6860 15867 21150 206.5 255.25 196 483.14999389648 483.14999389648 94697.398803711 45753047.654026
50694	2172686 6822 15867 21150 206.5 255.25 196 162.00311279297 732.75881958008 86633.237487793 42943832.276538
vector 50820  IntersectionExampleScenario.node[87].veinsmobility  posx  ETV
vector 50821  IntersectionExampleScenario.node[87].veinsmobility  posy  ETV
vector 50822  IntersectionExampleScenario.node[87].veinsmobility  speed  ETV
vector 50827  IntersectionExampleScenario.node[88].veinsmobility  posx  ETV
vector 50828  IntersectionExampleScenario.node[88].veinsmobility  posy  ETV
vector 50823  IntersectionExampleScenario.node[87].veinsmobility  acceleration  ETV
vector 50824  IntersectionExampleScenario.node[87].veinsmobility  co2emission  ETV
vector 50829  IntersectionExampleScenario.node[88].veinsmobility  speed  ETV
vector 50830  IntersectionExampleScenario.node[88].veinsmobility  acceleration  ETV
vector 50831  IntersectionExampleScenario.node[88].veinsmobility  co2emission  ETV
vector 50834  IntersectionExampleScenario.node[89].veinsmobility  posx  ETV
vector 50835  IntersectionExampleScenario.node[89].veinsmobility  posy  ETV
vector 50841  IntersectionExampleScenario.node[90].veinsmobility  posx  ETV
vector 50842  IntersectionExampleScenario.node[90].veinsmobility  posy  ETV
vector 50836  IntersectionExampleScenario.node[89].veinsmobility  speed  ETV
vector 50837  IntersectionExampleScenario.node[89].veinsmobility  acceleration  ETV
vector 50838  IntersectionExampleScenario.node[89].veinsmobility  co2emission  ETV
vector 50843  IntersectionExampleScenario.node[90].veinsmobility  speed  ETV
vector 50844  IntersectionExampleScenario.node[90].veinsmobility  acceleration  ETV
vector 50845  IntersectionExampleScenario.node[90].veinsmobility  co2emission  ETV
vector 50848  IntersectionExampleScenario.node[91].veinsmobility  posx  ETV
vector 50849  IntersectionExampleScenario.node[91].veinsmobility  posy  ETV
vector 50850  IntersectionExampleScenario.node[91].veinsmobility  speed  ETV
vector 50851  IntersectionExampleScenario.node[91].veinsmobility  acceleration  ETV
vector 50852  IntersectionExampleScenario.node[91].veinsmobility  co2emission  ETV
vector 50855  IntersectionExampleScenario.node[92].veinsmobility  posx  ETV
vector 50856  IntersectionExampleScenario.node[92].veinsmobility  posy  ETV
vector 50862  IntersectionExampleScenario.node[93].veinsmobility  posx  ETV
vector 50863  IntersectionExampleScenario.node[93].veinsmobility  posy  ETV
vector 50857  IntersectionExampleScenario.node[92].veinsmobility  speed  ETV
vector 50864  IntersectionExampleScenario.node[93].veinsmobility  speed  ETV
vector 50858  IntersectionExampleScenario.node[92].veinsmobility  acceleration  ETV
vector 50859  IntersectionExampleScenario.node[92].veinsmobility  co2emission  ETV
vector 50865  IntersectionExampleScenario.node[93].veinsmobility  acceleration  ETV
vector 50866  IntersectionExampleScenario.node[93].veinsmobility  co2emission  ETV
vector 50869  IntersectionExampleScenario.node[94].veinsmobility  posx  ETV
vector 50870  IntersectionExampleScenario.node[94].veinsmobility  posy  ETV
vector 50871  IntersectionExampleScenario.node[94].veinsmobility  speed  ETV
vector 50872  IntersectionExampleScenario.node[94].veinsmobility  acceleration  ETV
vector 50873  IntersectionExampleScenario.node[94].veinsmobility  co2emission  ETV
vector 50876  IntersectionExampleScenario.node[95].veinsmobility  posx  ETV
vector 50877  IntersectionExampleScenario.node[95].veinsmobility  posy  ETV
50733	2182870 5515 17721 22107 224.5 264.75 162 0.973 11.36141391502 498.04660962162 2605.702682659
50732	2188385 5015 17721 22107 224.5 264.75 162 -3.4963760375977 2.5 37.15309715271 266.39964838222
50731	2193400 5391 17700 22107 224.25 264.75 163 5.6500000953674 15.25 2185.2570457458 30545.530708214
50730	2198791 5736 17679 22107 224 264.75 164 236.24053955078 483.14999389648 70855.863647461 31560643.56414
50729	2204527 5719 17679 22107 224 264.75 164 184.17810058594 483.14999389648 65225.143066406 27703567.755517
vector 50878  IntersectionExampleScenario.node[95].veinsmobility  speed  ETV
vector 50879  IntersectionExampleScenario.node[95].veinsmobility  acceleration  ETV
vector 50880  IntersectionExampleScenario.node[95].veinsmobility  co2emission  ETV
vector 50883  IntersectionExampleScenario.node[96].veinsmobility  posx  ETV
vector 50884  IntersectionExampleScenario.node[96].veinsmobility  posy  ETV
vector 50885  IntersectionExampleScenario.node[96].veinsmobility  speed  ETV
50719	2210725 6613 16824 22419 215.5 267.25 208 0.973 12.553400930962 624.46096120095 3572.5156150905
50718	2217338 5925 16824 22419 215.5 267.25 208 -39.811653137207 4 42.754949569702 1981.1017114316
50717	2223263 6250 16797 22419 215.25 267.25 209 0 16.89999961853 2205.4361190796 33810.298688479
50716	2229513 7312 16770 22419 215 267.25 210 184.17810058594 732.47497558594 95371.555343628 47263889.314769
50715	2236825 7349 16770 22419 215 267.25 210 486.85000610352 486.85000610352 102238.50128174 49774814.973028
vector 50886  IntersectionExampleScenario.node[96].veinsmobility  acceleration  ETV
vector 50887  IntersectionExampleScenario.node[96].veinsmobility  co2emission  ETV
50754	2244343 5527 17992 22484 227.5 267.75 162 0.973 11.200708441096 476.89338252466 2380.5294359549
50753	2249870 5060 17992 22484 227.5 267.75 162 -3.2197952270508 2.5 35.964826583862 214.67015685045
50752	2254930 5435 17967 22484 227.25 267.75 163 5.6500000953674 15.02499961853 2211.7960281372 30770.963277142
50751	2260365 5728 17942 22484 227 267.75 164 235.48217773438 486.85000610352 71019.125976562 31758868.125218
50750	2266093 5729 17942 22484 227 267.75 164 483.1213684082 785.82187652588 93719.085319519 55369755.97488
50712	2271822 6900 16670 22515 214 268 217 0.973 11.810082123732 602.11732180429 3098.1180472982
50711	2278722 6301 16670 22515 214 268 217 -9.2922821044922 4 39.529638290405 571.06517251363
50710	2285023 6575 16645 22515 213.75 268 218 0 15.875 2230.8057308197 32155.889924427
50709	2291598 7653 16619 22515 213.5 268 219 486.63604736328 798.59687805176 122043.11769867 70195119.745498
50708	2299251 7594 16619 22515 213.5 268 219 236.61950683594 483.14999389648 97758.891021729 44660898.290847
vector 50890  IntersectionExampleScenario.node[97].veinsmobility  posx  ETV
vector 50891  IntersectionExampleScenario.node[97].veinsmobility  posy  ETV
vector 50892  IntersectionExampleScenario.node[97].veinsmobility  speed  ETV
vector 50893  IntersectionExampleScenario.node[97].veinsmobility  acceleration  ETV
vector 50894  IntersectionExampleScenario.node[97].veinsmobility  co2emission  ETV
50726	2307246 7082 16909 22643 216.25 269 212 0.973 11.90022389248 616.55363833357 3174.5706609711
[...]
vector 54040  IntersectionExampleScenario.node[547].veinsmobility  posx  ETV
vector 54041  IntersectionExampleScenario.node[547].veinsmobility  posy  ETV
vector 54042  IntersectionExampleScenario.node[547].veinsmobility  speed  ETV
vector 54043  IntersectionExampleScenario.node[547].veinsmobility  acceleration  ETV
vector 54044  IntersectionExampleScenario.node[547].veinsmobility  co2emission  ETV
vector 54047  IntersectionExampleScenario.node[548].veinsmobility  posx  ETV
vector 54048  IntersectionExampleScenario.node[548].veinsmobility  posy  ETV
vector 54049  IntersectionExampleScenario.node[548].veinsmobility  speed  ETV
vector 54050  IntersectionExampleScenario.node[548].veinsmobility  acceleration  ETV
vector 54051  IntersectionExampleScenario.node[548].veinsmobility  co2emission  ETV
53953	16924172 7303 132384 137027 1721.75 1774.75 213 0.973 11.200708441096 571.67450164554 2744.1645289385
53952	16931475 6993 132384 137027 1721.75 1774.75 213 -8.2128305435181 4 36.813589096069 483.29830509883
53951	16938468 7369 132355 137027 1721.5 1774.75 214 0 15.276702880859 2190.0107075274 30180.382152359
53950	16945837 7950 132328 137027 1721.25 1774.75 215 483.14999389648 733.61976623535 112536.79708862 59999425.879477
53949	16953787 7925 132328 137027 1721.25 1774.75 215 184.17810058594 486.85000610352 89478.420227051 39250559.691205
vector 54054  IntersectionExampleScenario.node[549].veinsmobility  posx  ETV
vector 54055  IntersectionExampleScenario.node[549].veinsmobility  posy  ETV
vector 54056  IntersectionExampleScenario.node[549].veinsmobility  speed  ETV
vector 54061  IntersectionExampleScenario.node[550].veinsmobility  posx  ETV
vector 54062  IntersectionExampleScenario.node[550].veinsmobility  posy  ETV
vector 54057  IntersectionExampleScenario.node[549].veinsmobility  acceleration  ETV
vector 54058  IntersectionExampleScenario.node[549].veinsmobility  co2emission  ETV
vector 54068  IntersectionExampleScenario.node[551].veinsmobility  posx  ETV
vector 54069  IntersectionExampleScenario.node[551].veinsmobility  posy  ETV
vector 54063  IntersectionExampleScenario.node[550].veinsmobility  speed  ETV
vector 54064  IntersectionExampleScenario.node[550].veinsmobility  acceleration  ETV
vector 54065  IntersectionExampleScenario.node[550].veinsmobility  co2emission  ETV
vector 54070  IntersectionExampleScenario.node[551].veinsmobility  speed  ETV
vector 54071  IntersectionExampleScenario.node[551].veinsmobility  acceleration  ETV
vector 54072  IntersectionExampleScenario.node[551].veinsmobility  co2emission  ETV
vector 54075  IntersectionExampleScenario.node[552].veinsmobility  posx  ETV
vector 54076  IntersectionExampleScenario.node[552].veinsmobility  posy  ETV
53981	16963086 5453 134160 137291 1741 1779.25 154 0.973 12.521125886372 559.79938646318 3488.7607824805
53980	16968539 5391 134160 137291 1741 1779.25 154 -3.3431396484375 2.5 42.415441513062 336.33616583038
53979	16973930 5410 134135 137291 1740.75 1779.25 155 5.6500000953674 16.855768203735 2184.9406843185 32481.466417987
53978	16979340 5767 134112 137291 1740.5 1779.25 156 486.85000610352 733.21928405762 83694.384185791 45779460.621361
53977	16985107 5762 134112 137291 1740.5 1779.25 156 486.85000610352 785.82187652588 89332.538444519 52854336.77628
vector 54077  IntersectionExampleScenario.node[552].veinsmobility  speed  ETV
vector 54078  IntersectionExampleScenario.node[552].veinsmobility  acceleration  ETV
vector 54079  IntersectionExampleScenario.node[552].veinsmobility  co2emission  ETV
vector 54082  IntersectionExampleScenario.node[553].veinsmobility  posx  ETV
vector 54083  IntersectionExampleScenario.node[553].veinsmobility  posy  ETV
vector 54084  IntersectionExampleScenario.node[553].veinsmobility  speed  ETV
vector 54089  IntersectionExampleScenario.node[554].veinsmobility  posx  ETV
vector 54090  IntersectionExampleScenario.node[554].veinsmobility  posy  ETV
vector 54085  IntersectionExampleScenario.node[553].veinsmobility  acceleration  ETV
vector 54086  IntersectionExampleScenario.node[553].veinsmobility  co2emission  ETV
vector 54091  IntersectionExampleScenario.node[554].veinsmobility  speed  ETV
vector 54092  IntersectionExampleScenario.node[554].veinsmobility  acceleration  ETV
vector 54093  IntersectionExampleScenario.node[554].veinsmobility  co2emission  ETV
53988	16991931 5830 134185 137497 1741.25 1781.75 163 0.973 11.200708441096 504.4289489945 2596.1359103932
53987	16997761 5957 134185 137497 1741.25 1781.75 163 -3.4304580688477 2.5 37.15309715271 251.11496573998
53986	17003718 6034 134160 137497 1741 1781.75 164 5.6500000953674 15.178924560547 2203.0350966454 30778.522590001
53985	17009752 6097 134135 137497 1740.75 1781.75 165 483.14999389648 732.25117492676 88289.239517212 48211004.475062
53984	17015849 6074 134135 137497 1740.75 1781.75 165 184.17810058594 486.85000610352 65997.303527832 28218295.92345
vector 54096  IntersectionExampleScenario.node[555].veinsmobility  posx  ETV
vector 54097  IntersectionExampleScenario.node[555].veinsmobility  posy  ETV
53995	17022079 6123 134258 137704 1742 1784 169 0.973 11.093806525473 479.64044163562 2233.9636431555
53994	17028202 5566 134258 137704 1742 1784 169 -4.5 2.5 34.606801986694 185.69768210533
53993	17033768 6065 134234 137704 1741.75 1784 170 5.6500000953674 14.875 2312.2345323563 31919.661914529
53992	17039833 6326 134209 137704 1741.5 1784 171 483.14999389648 483.14999389648 82618.648956299 39917199.738971
53991	17046159 6292 134209 137704 1741.5 1784 171 161.1796875 734.25422668457 74947.953231812 37787678.859491
vector 54098  IntersectionExampleScenario.node[555].veinsmobility  speed  ETV
vector 54099  IntersectionExampleScenario.node[555].veinsmobility  acceleration  ETV
vector 54100  IntersectionExampleScenario.node[555].veinsmobility  co2emission  ETV
vector 54103  IntersectionExampleScenario.node[556].veinsmobility  posx  ETV
vector 54104  IntersectionExampleScenario.node[556].veinsmobility  posy  ETV
vector 54105  IntersectionExampleScenario.node[556].veinsmobility  speed  ETV
vector 54110  IntersectionExampleScenario.node[557].veinsmobility  posx  ETV
vector 54111  IntersectionExampleScenario.node[557].veinsmobility  posy  ETV
vector 54117  IntersectionExampleScenario.node[558].veinsmobility  posx  ETV
vector 54118  IntersectionExampleScenario.node[558].veinsmobility  posy  ETV
vector 54106  IntersectionExampleScenario.node[556].veinsmobility  acceleration  ETV
vector 54107  IntersectionExampleScenario.node[556].veinsmobility  co2emission  ETV
vector 54112  IntersectionExampleScenario.node[557].veinsmobility  speed  ETV
vector 54119  IntersectionExampleScenario.node[558].veinsmobility  speed  ETV
vector 54113  IntersectionExampleScenario.node[557].veinsmobility  acceleration  ETV
vector 54114  IntersectionExampleScenario.node[557].veinsmobility  co2emission  ETV
vector 54120  IntersectionExampleScenario.node[558].veinsmobility  acceleration  ETV
vector 54121  IntersectionExampleScenario.node[558].veinsmobility  co2emission  ETV
53967	17053919 6943 133770 138052 1736.5 1787.25 204 0.973 11.648172402475 577.39983839837 2983.575677917
53966	17060862 6582 133770 138052 1736.5 1787.25 204 -7.189480304718 4 38.511121749878 474.94870450456
53965	17067444 6780 133749 138052 1736.25 1787.25 205 0 15.64999961853 2202.1993170977 31190.151529502
53964	17074224 7599 133728 138052 1736 1787.25 206 184.17810058594 486.85000610352 85435.297149658 37397423.804265
53963	17081823 7616 133728 138052 1736 1787.25 206 236.75640869141 486.85000610352 91902.146026611 42056187.512433
53974	17089439 6872 134026 138168 1739.5 1788.25 196 0.97223939240464 11.648172402475 580.23894312912 3074.5694731718
53973	17096311 6778 134026 138168 1739.5 1788.25 196 -4.5 2.5 38.680875778198 436.74700204431
53972	17103089 7143 134003 138168 1739.25 1788.25 197 0 15.64999961853 2266.6547286883 31889.329426888
53971	17110232 7258 133980 138168 1739 1788.25 198 171.40313720703 733.36659240723 88342.141693115 43842452.774065
53970	17117490 7325 133980 138168 1739 1788.25 198 486.85000610352 486.85000610352 96396.301208496 46930539.831713
vector 54124  IntersectionExampleScenario.node[559].veinsmobility  posx  ETV
vector 54125  IntersectionExampleScenario.node[559].veinsmobility  posy  ETV
vector 54126  IntersectionExampleScenario.node[559].veinsmobility  speed  ETV
vector 54127  IntersectionExampleScenario.node[559].veinsmobility  acceleration  ETV
vector 54128  IntersectionExampleScenario.node[559].veinsmobility  co2emission  ETV
vector 54131  IntersectionExampleScenario.node[560].veinsmobility  posx  ETV
vector 54132  IntersectionExampleScenario.node[560].veinsmobility  posy  ETV
54002	17125377 6239 134652 138511 1746.5 1791.25 180 0.973 11.36141391502 558.0857260303 3069.1496716573
54001	17131616 6083 134652 138511 1746.5 1791.25 180 -3.7446174621582 2.5 36.813589096069 366.10945681015
54000	17137699 6373 134630 138511 1746.25 1791.25 181 4.7367858886719 15.25 2184.0556607246 28456.129767565
53999	17144072 6705 134607 138511 1746 1791.25 182 184.17810058594 483.14999389648 72857.70211792 30952458.799769
53998	17150777 6728 134607 138511 1746 1791.25 182 486.85000610352 733.12852478027 96991.396972656 52675263.944385
vector 54133  IntersectionExampleScenario.node[560].veinsmobility  speed  ETV
vector 54134  IntersectionExampleScenario.node[560].veinsmobility  acceleration  ETV
vector 54135  IntersectionExampleScenario.node[560].veinsmobility  co2emission  ETV
54023	17157755 5973 135047 138690 1751.25 1792.75 167 0.973 11.200708441096 490.35798402507 2351.8822336993
54022	17163728 5682 135047 138690 1751.25 1792.75 167 -3.5818061828613 2.5 35.795072555542 234.78522386949
54021	17169410 6166 135024 138690 1751 1792.75 168 5.6500000953674 15.02499961853 2202.3734974861 30050.786707098
54020	17175576 6247 135001 138690 1750.75 1792.75 169 483.14947509766 785.82187652588 96161.22303009 56566499.467639
54019	17181823 6219 135001 138690 1750.75 1792.75 169 483.14999389648 732.24537658691 90461.066970825 49409580.239736
54030	17188042 6028 135097 138864 1751.75 1794.25 171 0.973 11.200708441096 525.56598253298 2692.633521123
54029	17194070 6059 135097 138864 1751.75 1794.25 171 -3.8588638305664 2.5 37.859540939331 293.97003727013
54028	17200129 6243 135072 138864 1751.5 1794.25 172 5.6500000953674 15.356908798218 2181.7368140221 29075.475765451
54027	17206372 6376 135047 138864 1751.25 1794.25 173 184.17810058594 483.30575561523 69066.359741211 29352578.358061
54026	17212748 6384 135047 138864 1751.25 1794.25 173 486.85000610352 732.4449005127 92581.503479004 50499402.095718
54009	17219132 6836 134874 139488 1749.25 1800 204 0.973 11.200708441096 534.94285954309 2642.9793531993
54008	17225968 6678 134874 139488 1749.25 1800 204 -7.0380640029907 4 35.625318527222 452.45168734505
54007	17232646 6617 134851 139488 1749 1800 205 0 15.02499961853 1951.6892678738 26149.227803024
54006	17239263 7557 134830 139488 1748.75 1800 206 486.85000610352 676.78147888184 105431.59463501 54479315.419496
54005	17246820 7612 134830 139488 1748.75 1800 206 486.63604736328 785.82187652588 115190.28861237 66340012.760707
54016	17254432 7069 134896 139488 1749.5 1800 203 0.973 10.916047529558 541.98553047362 2539.048431039
54015	17261501 7251 134896 139488 1749.5 1800 203 -4.5 2.5 37.153169631958 432.90114098458
54014	17268752 7071 134874 139488 1749.25 1800 204 0 14.989978790283 1921.5171114989 25505.969004335
54013	17275823 7581 134851 139488 1749 1800 205 486.85000610352 643.18569946289 103253.11883545 52303103.506526
54012	17283404 7567 134851 139488 1749 1800 205 486.85000610352 810.23281097412 117547.98655701 69703887.119984
54037	17290971 6370 135301 139488 1753.75 1800 186 0.973 11.200708441096 496.54049209937 2530.5115672127
54036	17297341 6567 135301 139488 1753.75 1800 186 -3.8740379810333 2.5 35.456373214722 347.98032045984
54035	17303908 6717 135274 139488 1753.5 1800 187 0 15.02499961853 1796.8529318813 22977.945676993
54034	17310625 6956 135247 139488 1753.25 1800 188 486.85000610352 486.85000610352 91527.801147461 44560310.547283
54033	17317581 6940 135247 139488 1753.25 1800 188 359.59561157227 804.35243988037 106730.17656708 63170339.351701
54044	17324521 3815 136932 139488 1773.25 1800 108 0.87724236611116 12.717865293408 448.02114625838 3250.8934889736
54043	17328336 3469 136932 139488 1773.25 1800 108 -4.0983390808105 2.5 44.768728256226 327.96081740782
54042	17331805 3689 136917 139488 1773 1800 109 5.6500000953674 17.125 1476.4820842743 21570.095775102
54041	17335494 4068 136902 139488 1772.75 1800 110 413.83584594727 483.14999389648 52406.430297852 24994452.746648
54040	17339562 4044 136902 139488 1772.75 1800 110 184.17810058594 483.16494750977 40009.599609375 15789913.412753
54051	17343606 3583 136996 139488 1774.25 1800 104 0.973 11.200708441096 291.33764684463 1417.7165187701
54050	17347189 3368 136996 139488 1774.25 1800 104 -8.487024307251 4 -1.1000003814697 381.38817737312
54049	17350557 3672 136979 139488 1774 1800 105 0 15.02499961853 1171.767865181 15897.633999494
54048	17354229 3902 136962 139488 1773.75 1800 106 184.17810058594 476.45938110352 36997.776184082 13970078.282461
54047	17358131 3921 136962 139488 1773.75 1800 106 486.85000610352 486.85000610352 51606.100646973 25124430.414957
54058	17362052 3203 137174 139488 1777.5 1800 91 0.973 10.971800600351 254.51005476312 1189.9435072353
54057	17365255 3282 137174 139488 1777.5 1800 91 -3.9256992340088 2.5 -1.0670490264893 205.53434769105
54056	17368537 3399 137161 139488 1777.25 1800 92 5.3832378387451 14.703488349915 1152.8667163849 15262.320466721
54055	17371936 3439 137147 139488 1777 1800 93 483.14999389648 483.14999389648 44932.949432373 21709354.244002
54054	17375375 3418 137147 139488 1777 1800 93 179.81719970703 466.66705322266 29115.824768066 9892251.15058
54065	17378793 3149 137206 139488 1778 1800 89 0.973 12.099024792222 282.42096055516 1610.4102478888
54064	17381942 3000 137206 139488 1778 1800 89 -3.7528038024902 2.5 5.3999996185303 215.41159915348
54063	17384942 3173 137189 139488 1777.75 1800 90 5.6500000953674 16.27499961853 1213.3301620483 17501.248205834
54062	17388115 3366 137174 139488 1777.5 1800 91 486.85000610352 493.78375244141 44327.204162598 21592421.277074
54061	17391481 3361 137174 139488 1777.5 1800 91 487.10119628906 785.82187652588 57730.773521423 37500375.89555
54072	17394842 3015 137223 139488 1778.25 1800 88 0.973 12.099024792222 279.05710158983 1667.7485205092
54071	17397857 3021 137223 139488 1778.25 1800 88 -3.8982219696045 2.5 10.89999961853 211.82970826568
54070	17400878 3086 137206 139488 1778 1800 89 5.6500000953674 16.27499961853 1142.6669745445 15799.661248993
54069	17403964 3324 137189 139488 1777.75 1800 90 469.23205566406 483.14999389648 43415.371917725 20943841.531841
54068	17407288 3318 137189 139488 1777.75 1800 90 208.99920654297 483.14999389648 31903.085754395 12075899.960134
54079	17410606 2856 137329 139488 1779.75 1800 82 0.973 11.200708441096 266.22570587626 1491.7527847547
54078	17413462 2870 137329 139488 1779.75 1800 82 -2.9245300292969 2.5 17.446184158325 180.05691368143
54077	17416332 3058 137310 139488 1779.5 1800 83 5.6500000953674 15.098056793213 1082.6145801544 14769.234028415
54076	17419390 3085 137291 139488 1779.25 1800 84 184.17810058594 451.1780090332 26563.247070312 9017710.0217094
54075	17422475 3108 137291 139488 1779.25 1800 84 486.85000610352 486.85000610352 40895.400512695 19909925.989211
54086	17425583 2782 137428 139488 1781 1800 77 0.973 11.648172402475 272.08157498669 1592.0217884157
54085	17428365 2674 137428 139488 1781 1800 77 -2.7740592956543 2.5 29.575845718384 136.64574742345
54084	17431039 2866 137407 139488 1780.75 1800 78 5.6500000953674 15.830724716187 1122.3200359344 16622.829284436
54083	17433905 2919 137386 139488 1780.5 1800 79 509.67297363281 785.82187652588 52003.437110901 34810050.180178
54082	17436824 2922 137386 139488 1780.5 1800 79 483.14999389648 483.14999389648 38168.849517822 18441279.411572
54093	17439746 2757 137474 139488 1781.5 1800 75 0.973 11.519712662168 253.34449162521 1380.1011346698
54092	17442503 2557 137474 139488 1781.5 1800 75 -4.5 2.5 33.841367721558 114.87222338649
54091	17445060 2805 137451 139488 1781.25 1800 76 5.6500000953674 15.471047401428 1062.6770391464 15342.217240428
54090	17447865 2842 137428 139488 1781 1800 77 548.70663452148 809.56562805176 53187.319038391 37241211.47476
54089	17450707 2847 137428 139488 1781 1800 77 483.14999389648 483.14999389648 37202.549530029 17974411.578367
54100	17453554 2320 137754 139488 1784.5 1800 63 1.1319351608255 11.648172402475 233.1007065055 1416.2517391636
54099	17455874 2300 137754 139488 1784.5 1800 63 -0.28734588623047 2.5 38.907075881958 101.41328099826
54098	17458174 2353 137729 139488 1784.25 1800 64 5.6500000953674 15.64999961853 904.40647697449 13220.589662161
54097	17460527 2403 137704 139488 1784 1800 65 486.85000610352 486.85000610352 31645.250396729 15406490.348795
54096	17462930 2395 137704 139488 1784 1800 65 564.85598754883 785.82187652588 44563.552467346 30859831.110294
54107	17465325 2016 137933 139488 1786.25 1800 56 0.973 12.059721096765 261.84973534858 1952.9661708871
54106	17467341 1892 137933 139488 1786.25 1800 56 -2.4093971252441 2.5 42.282903671265 153.07060311555
54105	17469233 2092 137906 139488 1786 1800 57 5.6500000953674 16.220726013184 785.15680789948 11244.636255716
54104	17471325 2128 137879 139488 1785.75 1800 58 184.17810058594 375.24468994141 15737.736846924 4482273.4550282
54103	17473453 2145 137879 139488 1785.75 1800 58 486.85000610352 486.85000610352 28237.300354004 13747329.849694
54114	17475598 1987 137994 139488 1786.75 1800 54 1.9982673317673 11.648172402475 218.0927500076 1375.1789115609
54113	17477585 1943 137994 139488 1786.75 1800 54 -0.058845520019531 2.5 39.900556564331 100.09340170274
54112	17479528 2019 137964 139488 1786.5 1800 55 5.6500000953674 15.676128387451 774.80453109741 11365.049905274
54111	17481547 2072 137933 139488 1786.25 1800 56 486.85000610352 486.85000610352 27263.600341797 13273283.992808
54110	17483619 2065 137933 139488 1786.25 1800 56 614.23922729492 802.70781707764 40248.514099121 29122784.976203
54121	17485684 1970 137994 139488 1786.75 1800 54 0.973 11.200708441096 198.4988570148 1204.4160940521
54120	17487654 1973 137994 139488 1786.75 1800 54 -0.46867370605469 2.5 35.625337600708 94.252055527893
54119	17489627 2022 137964 139488 1786.5 1800 55 5.6500000953674 15.02499961853 734.50277519226 10147.430045478
54118	17491649 2064 137933 139488 1786.25 1800 56 617.73364257812 796.51808929443 40082.932060242 28864823.364913
54117	17493713 2072 137933 139488 1786.25 1800 56 483.14999389648 483.14999389648 27056.399658203 13072299.329722
54128	17495785 1475 138395 139488 1790.25 1800 40 1.8321577376031 11.200708441096 174.84414544101 1162.4962010976
54127	17497260 1387 138395 139488 1790.25 1800 40 -0.086727142333984 2.5 37.153352737427 93.767182615953
54126	17498647 1504 138366 139488 1790 1800 41 5.6500000953674 15.02499961853 539.11680030823 7429.2118645163
54125	17500151 1526 138337 139488 1789.75 1800 42 177.97814941406 307.77935791016 9847.0823364258 2379270.5460126
54124	17501677 1553 138337 139488 1789.75 1800 42 486.85000610352 486.85000610352 20447.700256348 9954962.9946057
54135	17503230 1251 138573 139488 1791.75 1800 34 1.5237915469079 11.200708441096 160.65548646016 1129.9168476239
54134	17504481 1154 138573 139488 1791.75 1800 34 -0.17160415649414 2.5 36.816480636597 93.817299277467
54133	17505635 1284 138542 139488 1791.5 1800 35 5.6500000953674 15.02499961853 448.12713623047 6049.7450306459
54132	17506919 1332 138511 139488 1791.25 1800 36 483.14999389648 483.14999389648 17393.399780273 8403620.9976782
54131	17508251 1310 138511 139488 1791.25 1800 36 184.17810058594 291.25671386719 8277.0001220703 1944469.4480244
50207	17509561 631 0 139487 0 1800 31 0 21 428 6460
50208	17510192 642 0 139487 0 1800 31 0 146 2310 227494
