file 16849200 1591402246                                        
version 2
run nodebug-9-20200605-20:08:19-14344
attr configname nodebug
attr datetime 20200605-20:08:19
attr experiment nodebug
attr inifile omnetpp.ini
attr iterationvars ""
attr iterationvars2 $repetition=9
attr measurement ""
attr network "\"org.car2x.veins.modules.application.ExtTraCIScenarioManagerLaunchd.IntersectionExampleScenario\""
attr processid 14344
attr repetition 9
attr replication #9
attr resultdir results
attr runnumber 9
attr seedset 9
param **.coreDebug false
param **.debug false
param *.**.nic.mac1609_4.bitrate 18Mbps
param *.**.nic.mac1609_4.txPower 20mW
param *.**.nic.mac1609_4.useServiceChannel false
param *.**.nic.phy80211p.analogueModels "xmldoc(\"config.xml\")"
param *.**.nic.phy80211p.decider "xmldoc(\"config.xml\")"
param *.**.nic.phy80211p.sensitivity -89dBm
param *.**.nic.phy80211p.thermalNoise -110dBm
param *.**.nic.phy80211p.usePropagationDelay true
param *.**.nic.phy80211p.useThermalNoise true
param *.annotations.draw false
param *.connectionManager.alpha 2.0
param *.connectionManager.carrierFrequency "5.890e9 Hz"
param *.connectionManager.pMax 20mW
param *.connectionManager.sat -89dBm
param *.connectionManager.sendDirect true
param *.manager.autoShutdown true
param *.manager.host "\"localhost\""
param *.manager.launchConfig "xmldoc(\"paramics.launchd.xml\")"
param *.manager.margin 25
param *.manager.moduleDisplayString "\"\""
param *.manager.moduleName "\"node\""
param *.manager.moduleType "\"org.car2x.veins.nodes.Car\""
param *.manager.port 9999
param *.manager.updateInterval 250ms
param *.node[*0].veinsmobility.accidentCount 0
param *.node[*0].veinsmobility.accidentDuration 30s
param *.node[*0].veinsmobility.accidentStart 75s
param *.node[*].appl.LiderSelectZoneRadio 55.0
param *.node[*].appl.ShareDataZoneRadio 110.0
param *.node[*].appl.TiempoSemaforo 30.0
param *.node[*].appl.beaconInterval 1s
param *.node[*].appl.beaconPriority 3
param *.node[*].appl.dataOnSch false
param *.node[*].appl.dataPriority 2
param *.node[*].appl.debug false
param *.node[*].appl.headerLength "256 bit"
param *.node[*].appl.maxOffset 0.005s
param *.node[*].appl.sendBeacons false
param *.node[*].appl.sendData true
param *.node[*].applType "\"Dummy\""
param *.node[*].mobilityType "\"TraCIMobility\""
param *.node[*].mobilityType.debug true
param *.node[*].veinsmobility.x 0
param *.node[*].veinsmobility.y 0
param *.node[*].veinsmobility.z 1.895
param *.node[*].veinsmobilityType "\"org.car2x.veins.modules.mobility.traci.TraCIMobility\""
param *.node[*].veinsmobilityType.debug true
param *.playgroundSizeX 8500m
param *.playgroundSizeY 8500m
param *.playgroundSizeZ 50m
param *.world.use2D false
param *.world.useTorus false

vector 7774  IntersectionExampleScenario.manager  vehiclesinsim  ETV
attr type  int
vector 7775  IntersectionExampleScenario.manager  realtime  ETV
attr type  int
attr unit  s
vector 7778  IntersectionExampleScenario.node[0].veinsmobility  posx  ETV
vector 7779  IntersectionExampleScenario.node[0].veinsmobility  posy  ETV
vector 7780  IntersectionExampleScenario.node[0].veinsmobility  speed  ETV
vector 7785  IntersectionExampleScenario.node[1].veinsmobility  posx  ETV
vector 7786  IntersectionExampleScenario.node[1].veinsmobility  posy  ETV
vector 7781  IntersectionExampleScenario.node[0].veinsmobility  acceleration  ETV
vector 7782  IntersectionExampleScenario.node[0].veinsmobility  co2emission  ETV
vector 7787  IntersectionExampleScenario.node[1].veinsmobility  speed  ETV
vector 7788  IntersectionExampleScenario.node[1].veinsmobility  acceleration  ETV
vector 7789  IntersectionExampleScenario.node[1].veinsmobility  co2emission  ETV
vector 7792  IntersectionExampleScenario.node[2].veinsmobility  posx  ETV
vector 7793  IntersectionExampleScenario.node[2].veinsmobility  posy  ETV
vector 7794  IntersectionExampleScenario.node[2].veinsmobility  speed  ETV
vector 7795  IntersectionExampleScenario.node[2].veinsmobility  acceleration  ETV
vector 7796  IntersectionExampleScenario.node[2].veinsmobility  co2emission  ETV
vector 7799  IntersectionExampleScenario.node[3].veinsmobility  posx  ETV
vector 7800  IntersectionExampleScenario.node[3].veinsmobility  posy  ETV
vector 7801  IntersectionExampleScenario.node[3].veinsmobility  speed  ETV
vector 7802  IntersectionExampleScenario.node[3].veinsmobility  acceleration  ETV
vector 7803  IntersectionExampleScenario.node[3].veinsmobility  co2emission  ETV
vector 7806  IntersectionExampleScenario.node[4].veinsmobility  posx  ETV
vector 7807  IntersectionExampleScenario.node[4].veinsmobility  posy  ETV
vector 7808  IntersectionExampleScenario.node[4].veinsmobility  speed  ETV
vector 7809  IntersectionExampleScenario.node[4].veinsmobility  acceleration  ETV
vector 7810  IntersectionExampleScenario.node[4].veinsmobility  co2emission  ETV
vector 7813  IntersectionExampleScenario.node[5].veinsmobility  posx  ETV
vector 7814  IntersectionExampleScenario.node[5].veinsmobility  posy  ETV
vector 7815  IntersectionExampleScenario.node[5].veinsmobility  speed  ETV
vector 7816  IntersectionExampleScenario.node[5].veinsmobility  acceleration  ETV
vector 7817  IntersectionExampleScenario.node[5].veinsmobility  co2emission  ETV
vector 7820  IntersectionExampleScenario.node[6].veinsmobility  posx  ETV
vector 7821  IntersectionExampleScenario.node[6].veinsmobility  posy  ETV
vector 7822  IntersectionExampleScenario.node[6].veinsmobility  speed  ETV
vector 7823  IntersectionExampleScenario.node[6].veinsmobility  acceleration  ETV
vector 7824  IntersectionExampleScenario.node[6].veinsmobility  co2emission  ETV
vector 7827  IntersectionExampleScenario.node[7].veinsmobility  posx  ETV
vector 7828  IntersectionExampleScenario.node[7].veinsmobility  posy  ETV
vector 7829  IntersectionExampleScenario.node[7].veinsmobility  speed  ETV
vector 7830  IntersectionExampleScenario.node[7].veinsmobility  acceleration  ETV
vector 7831  IntersectionExampleScenario.node[7].veinsmobility  co2emission  ETV
vector 7834  IntersectionExampleScenario.node[8].veinsmobility  posx  ETV
vector 7835  IntersectionExampleScenario.node[8].veinsmobility  posy  ETV
vector 7841  IntersectionExampleScenario.node[9].veinsmobility  posx  ETV
vector 7842  IntersectionExampleScenario.node[9].veinsmobility  posy  ETV
vector 7836  IntersectionExampleScenario.node[8].veinsmobility  speed  ETV
vector 7848  IntersectionExampleScenario.node[10].veinsmobility  posx  ETV
vector 7849  IntersectionExampleScenario.node[10].veinsmobility  posy  ETV
vector 7837  IntersectionExampleScenario.node[8].veinsmobility  acceleration  ETV
vector 7838  IntersectionExampleScenario.node[8].veinsmobility  co2emission  ETV
vector 7843  IntersectionExampleScenario.node[9].veinsmobility  speed  ETV
vector 7844  IntersectionExampleScenario.node[9].veinsmobility  acceleration  ETV
vector 7845  IntersectionExampleScenario.node[9].veinsmobility  co2emission  ETV
vector 7850  IntersectionExampleScenario.node[10].veinsmobility  speed  ETV
vector 7851  IntersectionExampleScenario.node[10].veinsmobility  acceleration  ETV
vector 7852  IntersectionExampleScenario.node[10].veinsmobility  co2emission  ETV
vector 7855  IntersectionExampleScenario.node[11].veinsmobility  posx  ETV
vector 7856  IntersectionExampleScenario.node[11].veinsmobility  posy  ETV
vector 7857  IntersectionExampleScenario.node[11].veinsmobility  speed  ETV
vector 7858  IntersectionExampleScenario.node[11].veinsmobility  acceleration  ETV
vector 7859  IntersectionExampleScenario.node[11].veinsmobility  co2emission  ETV
vector 7862  IntersectionExampleScenario.node[12].veinsmobility  posx  ETV
vector 7863  IntersectionExampleScenario.node[12].veinsmobility  posy  ETV
vector 7864  IntersectionExampleScenario.node[12].veinsmobility  speed  ETV
vector 7865  IntersectionExampleScenario.node[12].veinsmobility  acceleration  ETV
vector 7866  IntersectionExampleScenario.node[12].veinsmobility  co2emission  ETV
vector 7869  IntersectionExampleScenario.node[13].veinsmobility  posx  ETV
vector 7870  IntersectionExampleScenario.node[13].veinsmobility  posy  ETV
vector 7871  IntersectionExampleScenario.node[13].veinsmobility  speed  ETV
vector 7872  IntersectionExampleScenario.node[13].veinsmobility  acceleration  ETV
vector 7873  IntersectionExampleScenario.node[13].veinsmobility  co2emission  ETV
vector 7876  IntersectionExampleScenario.node[14].veinsmobility  posx  ETV
vector 7877  IntersectionExampleScenario.node[14].veinsmobility  posy  ETV
vector 7878  IntersectionExampleScenario.node[14].veinsmobility  speed  ETV
vector 7879  IntersectionExampleScenario.node[14].veinsmobility  acceleration  ETV
vector 7880  IntersectionExampleScenario.node[14].veinsmobility  co2emission  ETV
vector 7883  IntersectionExampleScenario.node[15].veinsmobility  posx  ETV
vector 7884  IntersectionExampleScenario.node[15].veinsmobility  posy  ETV
vector 7885  IntersectionExampleScenario.node[15].veinsmobility  speed  ETV
vector 7886  IntersectionExampleScenario.node[15].veinsmobility  acceleration  ETV
vector 7887  IntersectionExampleScenario.node[15].veinsmobility  co2emission  ETV
7782	9214 5657 11 3199 1.5 51 199 0.973 11.90022389248 579.51465338356 3073.674316325
7781	14871 5253 11 3199 1.5 51 199 -8.013355255127 4 39.529638290405 491.35818162182
7780	20124 5468 8 3199 1.25 51 200 0 16 2201.7318792343 31602.528258395
7779	25592 6269 5 3199 1 51 201 483.14999389648 785.82187652588 111805.65232086 64132811.630497
7778	31861 6273 5 3199 1 51 201 483.14999389648 733.12632751465 105359.21022034 56261668.409343
vector 7890  IntersectionExampleScenario.node[16].veinsmobility  posx  ETV
vector 7891  IntersectionExampleScenario.node[16].veinsmobility  posy  ETV
vector 7892  IntersectionExampleScenario.node[16].veinsmobility  speed  ETV
vector 7893  IntersectionExampleScenario.node[16].veinsmobility  acceleration  ETV
vector 7894  IntersectionExampleScenario.node[16].veinsmobility  co2emission  ETV
7789	38530 5968 21 3468 2 54.25 210 0.973 11.36141391502 569.31601219063 2789.3483391538
7788	44498 5408 21 3468 2 54.25 210 -8.487024307251 4 37.15309715271 495.2038807551
7787	49906 5743 16 3468 1.75 54.25 211 0 15.25 2174.2661561966 30066.938700887
7786	55649 6617 11 3468 1.5 54.25 212 184.17810058594 483.24322509766 87824.220611572 38344023.957581
7785	62266 6635 11 3468 1.5 54.25 212 486.85000610352 731.89202880859 111463.01609802 59627516.012615
7796	68901 6147 40 3544 2.75 55.25 211 0.973 11.450879080643 588.20618928532 2891.2057149339
7795	75048 5525 40 3544 2.75 55.25 211 -4.5 2.5 38.511121749878 469.69433392965
7794	80573 6003 33 3544 2.5 55.25 212 0 15.375 2295.9107271982 32025.097711388
7793	86576 6650 26 3544 2.25 55.25 213 161.1796875 486.86560058594 86274.889862061 37307666.174199
7792	93226 6673 26 3544 2.25 55.25 213 237.92016601562 486.85000610352 95384.827362061 43769134.10561
7803	99899 5191 289 3563 11.5 55.5 177 0.973 12.127085125876 595.91437365158 3462.7902939134
7802	105090 5341 289 3563 11.5 55.5 177 -4.5 2.5 42.255575180054 397.63448093988
7801	110431 5617 280 3563 11.25 55.5 178 5.1799697875977 16.313739776611 2209.6512794495 30053.828636248
7800	116048 5658 271 3563 11 55.5 179 483.09350585938 785.82187652588 101174.15303802 58999779.688035
7799	121706 5657 271 3563 11 55.5 179 483.14999389648 733.33815002441 94892.893753052 51306481.080311
vector 7897  IntersectionExampleScenario.node[17].veinsmobility  posx  ETV
vector 7898  IntersectionExampleScenario.node[17].veinsmobility  posy  ETV
vector 7899  IntersectionExampleScenario.node[17].veinsmobility  speed  ETV
vector 7900  IntersectionExampleScenario.node[17].veinsmobility  acceleration  ETV
vector 7901  IntersectionExampleScenario.node[17].veinsmobility  co2emission  ETV
vector 7904  IntersectionExampleScenario.node[18].veinsmobility  posx  ETV
vector 7905  IntersectionExampleScenario.node[18].veinsmobility  posy  ETV
vector 7906  IntersectionExampleScenario.node[18].veinsmobility  speed  ETV
vector 7907  IntersectionExampleScenario.node[18].veinsmobility  acceleration  ETV
vector 7908  IntersectionExampleScenario.node[18].veinsmobility  co2emission  ETV
vector 7911  IntersectionExampleScenario.node[19].veinsmobility  posx  ETV
vector 7912  IntersectionExampleScenario.node[19].veinsmobility  posy  ETV
vector 7913  IntersectionExampleScenario.node[19].veinsmobility  speed  ETV
vector 7914  IntersectionExampleScenario.node[19].veinsmobility  acceleration  ETV
vector 7915  IntersectionExampleScenario.node[19].veinsmobility  co2emission  ETV
vector 7918  IntersectionExampleScenario.node[20].veinsmobility  posx  ETV
vector 7919  IntersectionExampleScenario.node[20].veinsmobility  posy  ETV
vector 7920  IntersectionExampleScenario.node[20].veinsmobility  speed  ETV
vector 7921  IntersectionExampleScenario.node[20].veinsmobility  acceleration  ETV
vector 7922  IntersectionExampleScenario.node[20].veinsmobility  co2emission  ETV
7817	128947 6213 404 4401 14.25 68 216 0.973 11.200708441096 562.4203390446 2652.7762847063
7816	135160 5591 404 4401 14.25 68 216 -7.2424693107605 4 35.455564498901 448.16378211868
7815	140751 5988 391 4401 14 68 217 0 15.02499961853 2181.8535255194 29453.276232969
7814	146739 6862 378 4401 13.75 68 218 486.85000610352 734.4461517334 114792.4493866 61529103.339989
7813	153601 6917 378 4401 13.75 68 218 486.63604736328 785.82187652588 120993.08229828 69146870.505354
7810	160518 6297 356 4401 13.25 68 220 0.973 11.200708441096 566.3123390446 2656.5632007063
7809	166815 5659 356 4401 13.25 68 220 -7.2451009750366 4 35.455564498901 448.19107443402
7808	172474 6057 345 4401 13 68 221 0 15.02499961853 2181.8694725037 29453.478786619
7807	178531 6988 334 4401 12.75 68 222 235.55383300781 483.14999389648 98600.150543213 44881687.175388
7806	185519 7022 334 4401 12.75 68 222 184.17810058594 483.36395263672 92352.977630615 40425871.966943
7845	192541 4740 1363 4530 31 70 157 0.973 11.54047740176 510.99927709839 2973.1190294671
7844	197281 4499 1363 4530 31 70 157 -3.2867279052734 2.5 36.98334312439 288.60025527402
7843	201780 4825 1340 4530 30.75 70 158 5.6500000953674 15.5 2096.7882995605 28707.318566231
7842	206605 5087 1319 4530 30.5 70 159 483.14999389648 483.14999389648 76820.849029541 37115992.739745
7841	211692 5048 1319 4530 30.5 70 159 216.078125 735.45252990723 73614.818572998 37694829.621251
7824	216740 5447 941 4530 24.5 70 183 0.973 11.200708441096 516.38406515633 2520.7992267457
7823	222187 5416 941 4530 24.5 70 183 -2.0688285827637 2.5 35.795072555542 259.98385098283
7822	227603 5749 926 4530 24.25 70 184 3.7175872325897 15.02499961853 2209.3096082211 28766.206750505
7821	233352 5911 911 4530 24 70 185 236.39837646484 486.85000610352 81279.555480957 36760229.656184
7820	239263 5903 911 4530 24 70 185 482.95935058594 785.82187652588 104875.73838043 61305402.852952
vector 7925  IntersectionExampleScenario.node[21].veinsmobility  posx  ETV
vector 7926  IntersectionExampleScenario.node[21].veinsmobility  posy  ETV
vector 7927  IntersectionExampleScenario.node[21].veinsmobility  speed  ETV
vector 7928  IntersectionExampleScenario.node[21].veinsmobility  acceleration  ETV
vector 7929  IntersectionExampleScenario.node[21].veinsmobility  co2emission  ETV
vector 7932  IntersectionExampleScenario.node[22].veinsmobility  posx  ETV
vector 7933  IntersectionExampleScenario.node[22].veinsmobility  posy  ETV
vector 7934  IntersectionExampleScenario.node[22].veinsmobility  speed  ETV
vector 7935  IntersectionExampleScenario.node[22].veinsmobility  acceleration  ETV
vector 7936  IntersectionExampleScenario.node[22].veinsmobility  co2emission  ETV
7831	245958 5516 1215 4775 29 73.75 180 0.973 10.916047529558 560.8048646853 2776.7290179669
7830	251474 5205 1215 4775 29 73.75 180 -4.5 2.5 35.795072555542 420.26837842015
7829	256679 5496 1198 4775 28.75 73.75 181 5.6500000953674 14.720442771912 2182.1137866974 27946.694882196
7828	262175 5791 1181 4775 28.5 73.75 182 236.92785644531 483.14999389648 79407.642333984 35642247.953615
7827	267966 5808 1181 4775 28.5 73.75 182 184.17810058594 483.19561767578 71156.40914917 29851962.286262
7838	273774 5555 1340 4908 30.75 75.5 180 0.973 11.00486315618 529.46864377311 2478.7568266647
7837	279329 5282 1340 4908 30.75 75.5 180 -4.5 2.5 35.795072555542 264.09127541048
7836	284611 5516 1319 4908 30.5 75.5 181 5.6500000953674 14.75 2288.0856318474 29885.782875337
7835	290127 5824 1300 4908 30.25 75.5 182 483.14999389648 734.39204406738 96773.973022461 52509012.319291
7834	295951 5805 1300 4908 30.25 75.5 182 164.94219970703 486.86184692383 70420.046173096 29542119.161415
7859	301756 5464 1459 4965 32 76.25 178 0.973 11.54047740176 550.41615410945 2766.7456730256
7858	307220 5325 1459 4965 32 76.25 178 -4.5 2.5 41.518434524536 293.6506689652
7857	312545 5499 1434 4965 31.75 76.25 179 4.7708563804626 15.5 2339.4706263542 31667.804079101
7856	318044 5760 1409 4965 31.5 76.25 180 483.14999389648 483.14999389648 86966.998901367 42018104.988391
7855	323804 5730 1409 4965 31.5 76.25 180 153.18096923828 732.85487365723 76445.684066772 37667604.141431
7866	329534 4887 1950 5003 37 76.75 160 0.96466233231577 11.903268808605 543.81155821799 3016.4324771091
7865	334421 4886 1950 5003 37 76.75 160 -4.5 2.5 40.945066452026 309.82782014623
7864	339307 4951 1925 5003 36.75 76.75 161 5.6500000953674 16.004219055176 2187.4781503677 31121.224933573
7863	344258 5177 1900 5003 36.5 76.75 162 486.85000610352 733.9203338623 87272.996124268 47960888.767419
7862	349435 5174 1900 5003 36.5 76.75 162 486.81814575195 785.82187652588 92538.442420959 54607593.482684
vector 7939  IntersectionExampleScenario.node[23].veinsmobility  posx  ETV
vector 7940  IntersectionExampleScenario.node[23].veinsmobility  posy  ETV
vector 7941  IntersectionExampleScenario.node[23].veinsmobility  speed  ETV
vector 7942  IntersectionExampleScenario.node[23].veinsmobility  acceleration  ETV
vector 7943  IntersectionExampleScenario.node[23].veinsmobility  co2emission  ETV
7852	355005 6086 1386 5482 31.25 83 208 0.973 11.200708441096 554.23072110462 2643.1385361556
7851	361091 5595 1386 5482 31.25 83 208 -6.8690538406372 4 35.285810470581 453.5960721531
7850	366686 5885 1363 5482 31 83 209 0 15.02499961853 2180.2325649261 29402.559724746
7849	372571 6711 1340 5482 30.75 83 210 486.63604736328 785.82187652588 117019.64492035 67176572.696364
7848	379282 6652 1340 5482 30.75 83 210 236.11450195312 483.14999389648 92817.515136719 42089548.772738
7880	385934 4839 2669 5588 45.5 84.75 158 0.97223939240464 11.648172402475 534.97471190539 3261.4136266576
7879	390773 4523 2669 5588 45.5 84.75 158 -3.7081642150879 2.5 38.680875778198 297.84204145693
7878	395296 4860 2646 5588 45.25 84.75 159 5.6500000953674 15.64999961853 2208.4312763214 31472.698058704
7877	400156 5098 2623 5588 45 84.75 160 238.65875244141 785.82187652588 83760.883476257 47938503.040156
7876	405254 5120 2623 5588 45 84.75 160 483.14999389648 483.14999389648 77303.999023438 37349426.656348
vector 7946  IntersectionExampleScenario.node[24].veinsmobility  posx  ETV
vector 7947  IntersectionExampleScenario.node[24].veinsmobility  posy  ETV
vector 7948  IntersectionExampleScenario.node[24].veinsmobility  speed  ETV
vector 7949  IntersectionExampleScenario.node[24].veinsmobility  acceleration  ETV
vector 7950  IntersectionExampleScenario.node[24].veinsmobility  co2emission  ETV
vector 7953  IntersectionExampleScenario.node[25].veinsmobility  posx  ETV
vector 7954  IntersectionExampleScenario.node[25].veinsmobility  posy  ETV
vector 7955  IntersectionExampleScenario.node[25].veinsmobility  speed  ETV
vector 7956  IntersectionExampleScenario.node[25].veinsmobility  acceleration  ETV
vector 7957  IntersectionExampleScenario.node[25].veinsmobility  co2emission  ETV
vector 7960  IntersectionExampleScenario.node[26].veinsmobility  posx  ETV
vector 7961  IntersectionExampleScenario.node[26].veinsmobility  posy  ETV
vector 7962  IntersectionExampleScenario.node[26].veinsmobility  speed  ETV
vector 7963  IntersectionExampleScenario.node[26].veinsmobility  acceleration  ETV
vector 7964  IntersectionExampleScenario.node[26].veinsmobility  co2emission  ETV
vector 7967  IntersectionExampleScenario.node[27].veinsmobility  posx  ETV
vector 7968  IntersectionExampleScenario.node[27].veinsmobility  posy  ETV
vector 7969  IntersectionExampleScenario.node[27].veinsmobility  speed  ETV
vector 7970  IntersectionExampleScenario.node[27].veinsmobility  acceleration  ETV
vector 7971  IntersectionExampleScenario.node[27].veinsmobility  co2emission  ETV
vector 7974  IntersectionExampleScenario.node[28].veinsmobility  posx  ETV
vector 7975  IntersectionExampleScenario.node[28].veinsmobility  posy  ETV
vector 7976  IntersectionExampleScenario.node[28].veinsmobility  speed  ETV
vector 7977  IntersectionExampleScenario.node[28].veinsmobility  acceleration  ETV
vector 7978  IntersectionExampleScenario.node[28].veinsmobility  co2emission  ETV
7894	412354 5417 3410 6354 53.5 98.25 180 0.973 11.648172402475 553.30027313783 2941.7043722191
7893	417771 5004 3410 6354 53.5 98.25 180 -7.7750906944275 4 38.511121749878 480.02721114425
7892	422775 5350 3389 6354 53.25 98.25 181 0 15.64999961853 2214.2519129515 31459.955889585
7891	428125 5823 3367 6354 53 98.25 182 483.14999389648 483.14999389648 87933.29888916 42484972.821595
7890	433948 5796 3367 6354 53 98.25 182 184.17810058594 733.9766998291 82253.528640747 41331965.198172
7873	439744 6559 2392 6393 42.25 99 228 0.973 11.200708441096 583.29851877877 2716.159989331
7872	446303 6010 2392 6393 42.25 99 228 -31.84818649292 4 35.795072555542 1365.7105175805
7871	452313 6182 2371 6393 42 99 229 0 15.02499961853 2211.7104959488 30589.489849427
7870	458495 7350 2350 6393 41.75 99 230 235.04376220703 486.85000610352 103098.05145264 47362249.249151
7869	465845 7349 2350 6393 41.75 99 230 483.14999389648 785.82187652588 126620.52951813 71774630.105224
7887	473194 6177 2880 6419 47.75 99.5 208 0.973 11.810082123732 584.35857027526 2970.0128642755
7886	479371 6318 2880 6419 47.75 99.5 208 -3.9280204772949 2.5 39.869146347046 387.7733151779
7885	485689 6386 2855 6419 47.5 99.5 209 0 15.875 2189.8135663923 30300.184523212
7884	492075 6717 2830 6419 47.25 99.5 210 486.85000610352 734.30821228027 110306.75202942 58957262.151142
7883	498792 6707 2830 6419 47.25 99.5 210 486.85000610352 785.82187652588 117115.66475677 67196229.271524
7901	505499 5367 3729 6575 57.75 102.5 180 0.973 11.36141391502 528.55938630257 2774.2454371904
7900	510866 5341 3729 6575 57.75 102.5 180 -2.2057552337646 2.5 37.32285118103 283.0682605025
7899	516207 5497 3710 6575 57.5 102.5 181 4.7805676460266 15.25 2186.5053248405 28671.132160999
7898	521704 5827 3691 6575 57.25 102.5 182 486.85000610352 733.35047912598 96931.603225708 52609266.088504
7897	527531 5832 3691 6575 57.25 102.5 182 486.65808105469 785.82187652588 103606.55812836 60761809.164973
7908	533363 5238 3961 6666 61.25 104.25 173 0.973 11.36141391502 556.96421976929 2983.8817644176
7907	538601 5209 3961 6666 61.25 104.25 173 -4.5 2.5 40.378400802612 355.6288691802
7906	543810 5262 3946 6666 61 104.25 174 5.6500000953674 15.810426712036 2220.0080428123 30457.772594411
7905	549072 5616 3931 6666 60.75 104.25 175 486.85000610352 732.35498046875 93100.921295166 50459518.297773
7904	554688 5605 3931 6666 60.75 104.25 175 486.85000610352 795.46562957764 100591.50955963 59700962.096052
vector 7981  IntersectionExampleScenario.node[29].veinsmobility  posx  ETV
vector 7982  IntersectionExampleScenario.node[29].veinsmobility  posy  ETV
vector 7983  IntersectionExampleScenario.node[29].veinsmobility  speed  ETV
vector 7984  IntersectionExampleScenario.node[29].veinsmobility  acceleration  ETV
vector 7985  IntersectionExampleScenario.node[29].veinsmobility  co2emission  ETV
7936	560689 4556 4756 6912 73.5 109.5 145 0.973 12.553400930962 507.55174702317 3074.2554259595
7935	565245 4124 4756 6912 73.5 109.5 145 -3.1259422302246 2.5 43.773473739624 230.63900892667
7934	569369 4463 4737 6912 73.25 109.5 146 5.6500000953674 16.89999961853 2221.8958063126 34775.832659941
7933	573832 4742 4718 6912 73 109.5 147 483.14999389648 483.14999389648 71023.049102783 34314785.740519
7932	578574 4713 4718 6912 73 109.5 147 184.17810058594 734.09303283691 65708.650985718 33289297.735442
vector 7988  IntersectionExampleScenario.node[30].veinsmobility  posx  ETV
vector 7989  IntersectionExampleScenario.node[30].veinsmobility  posy  ETV
vector 7990  IntersectionExampleScenario.node[30].veinsmobility  speed  ETV
vector 7991  IntersectionExampleScenario.node[30].veinsmobility  acceleration  ETV
vector 7992  IntersectionExampleScenario.node[30].veinsmobility  co2emission  ETV
7929	583683 4819 4684 6981 72.5 110.75 154 0.96333723109819 12.099024792222 504.59535243052 2919.2685991872
7928	588502 4657 4684 6981 72.5 110.75 154 -3.5601577758789 2.5 40.208654403687 257.89705982677
7927	593159 4712 4667 6981 72.25 110.75 155 5.6500000953674 16.27499961853 2214.2372932434 32693.851980104
7926	597871 5017 4650 6981 72 110.75 156 235.27740478516 486.85000610352 67676.445098877 30306342.201408
7925	602888 5018 4650 6981 72 110.75 156 483.14999389648 785.82187652588 89210.69316864 52766581.184776
7922	607906 5735 4248 7129 65.75 113.5 192 0.973 11.648172402475 560.02966471349 2914.5465192183
7921	613641 5435 4248 7129 65.75 113.5 192 -6.7528104782104 4 37.832105636597 463.99844829571
7920	619076 5617 4230 7129 65.5 113.5 193 0 15.64999961853 2209.1045696735 31003.320672113
7919	624693 6242 4211 7129 65.25 113.5 194 184.17810058594 486.85000610352 79706.38458252 34676200.728712
7918	630935 6250 4211 7129 65.25 113.5 194 235.13372802734 486.85000610352 85864.248718262 39063946.475696
7915	637185 6006 4160 7168 64.5 114.25 200 0.973 11.00486315618 543.66103301268 2565.4492464613
7914	643191 5392 4160 7168 64.5 114.25 200 -9.2687568664551 4 34.606801986694 481.52837339951
7913	648583 5874 4143 7168 64.25 114.25 201 0 14.75 2214.838476181 29825.319639003
7912	654457 6505 4126 7168 64 114.25 202 235.27844238281 785.82187652588 104154.1570282 58087736.634661
7911	660962 6521 4126 7168 64 114.25 202 483.14999389648 483.14999389648 97596.29876709 47153651.153639
vector 7995  IntersectionExampleScenario.node[31].veinsmobility  posx  ETV
vector 7996  IntersectionExampleScenario.node[31].veinsmobility  posy  ETV
vector 7997  IntersectionExampleScenario.node[31].veinsmobility  speed  ETV
vector 7998  IntersectionExampleScenario.node[31].veinsmobility  acceleration  ETV
vector 7999  IntersectionExampleScenario.node[31].veinsmobility  co2emission  ETV
vector 8002  IntersectionExampleScenario.node[32].veinsmobility  posx  ETV
vector 8003  IntersectionExampleScenario.node[32].veinsmobility  posy  ETV
vector 8009  IntersectionExampleScenario.node[33].veinsmobility  posx  ETV
vector 8010  IntersectionExampleScenario.node[33].veinsmobility  posy  ETV
vector 8004  IntersectionExampleScenario.node[32].veinsmobility  speed  ETV
vector 8005  IntersectionExampleScenario.node[32].veinsmobility  acceleration  ETV
vector 8006  IntersectionExampleScenario.node[32].veinsmobility  co2emission  ETV
vector 8011  IntersectionExampleScenario.node[33].veinsmobility  speed  ETV
vector 8012  IntersectionExampleScenario.node[33].veinsmobility  acceleration  ETV
vector 8013  IntersectionExampleScenario.node[33].veinsmobility  co2emission  ETV
vector 8016  IntersectionExampleScenario.node[34].veinsmobility  posx  ETV
vector 8017  IntersectionExampleScenario.node[34].veinsmobility  posy  ETV
vector 8018  IntersectionExampleScenario.node[34].veinsmobility  speed  ETV
7943	668900 4949 5387 7520 81.75 120.5 156 0.973 11.648172402475 493.90664985485 2648.9493700567
7942	673849 4327 5387 7520 81.75 120.5 156 -3.4680099487305 2.5 38.850629806519 242.66203863791
7941	678176 4823 5366 7520 81.5 120.5 157 5.6500000953674 15.64999961853 2207.1573390961 31975.525449364
7940	682999 5132 5345 7520 81.25 120.5 158 483.12203979492 785.82187652588 90390.113258362 53478129.701896
7939	688131 5128 5345 7520 81.25 120.5 158 483.14999389648 733.10472106934 84677.394668579 46329556.500378
vector 8019  IntersectionExampleScenario.node[34].veinsmobility  acceleration  ETV
vector 8020  IntersectionExampleScenario.node[34].veinsmobility  co2emission  ETV
vector 8023  IntersectionExampleScenario.node[35].veinsmobility  posx  ETV
vector 8024  IntersectionExampleScenario.node[35].veinsmobility  posy  ETV
vector 8030  IntersectionExampleScenario.node[36].veinsmobility  posx  ETV
vector 8031  IntersectionExampleScenario.node[36].veinsmobility  posy  ETV
vector 8025  IntersectionExampleScenario.node[35].veinsmobility  speed  ETV
vector 8026  IntersectionExampleScenario.node[35].veinsmobility  acceleration  ETV
vector 8027  IntersectionExampleScenario.node[35].veinsmobility  co2emission  ETV
vector 8032  IntersectionExampleScenario.node[36].veinsmobility  speed  ETV
vector 8033  IntersectionExampleScenario.node[36].veinsmobility  acceleration  ETV
vector 8034  IntersectionExampleScenario.node[36].veinsmobility  co2emission  ETV
7950	694218 4809 5824 8008 89.25 127 152 0.973 12.099024792222 507.569306768 2839.3007492578
7949	699027 4550 5824 8008 89.25 127 152 -3.578182220459 2.5 41.057416915894 253.97713864001
7948	703577 4722 5811 8008 89 127 153 5.6500000953674 16.27499961853 2202.7064237595 32816.782405213
7947	708299 5028 5798 8008 88.75 127 154 482.93197631836 785.82187652588 88155.656364441 52198682.458169
7946	713327 5026 5798 8008 88.75 127 154 483.14999389648 731.83618164062 82397.574981689 44993746.252837
vector 8037  IntersectionExampleScenario.node[37].veinsmobility  posx  ETV
vector 8038  IntersectionExampleScenario.node[37].veinsmobility  posy  ETV
vector 8039  IntersectionExampleScenario.node[37].veinsmobility  speed  ETV
vector 8040  IntersectionExampleScenario.node[37].veinsmobility  acceleration  ETV
vector 8041  IntersectionExampleScenario.node[37].veinsmobility  co2emission  ETV
7957	718749 5013 6036 8449 93.25 132.5 158 0.973 11.810082123732 513.43619907667 2875.6901887968
7956	723762 4623 6036 8449 93.25 132.5 158 -3.2696113586426 2.5 39.529638290405 284.07429327694
7955	728385 4888 6021 8449 93 132.5 159 5.6500000953674 15.875 2188.4402418137 31584.250986053
7954	733273 5247 6006 8449 92.75 132.5 160 486.85000610352 734.31695556641 86012.819915771 47160665.558399
7953	738520 5246 6006 8449 92.75 132.5 160 486.85000610352 785.82187652588 91574.494667053 54143684.307907
vector 8044  IntersectionExampleScenario.node[38].veinsmobility  posx  ETV
vector 8045  IntersectionExampleScenario.node[38].veinsmobility  posy  ETV
vector 8051  IntersectionExampleScenario.node[39].veinsmobility  posx  ETV
vector 8052  IntersectionExampleScenario.node[39].veinsmobility  posy  ETV
vector 8046  IntersectionExampleScenario.node[38].veinsmobility  speed  ETV
vector 8053  IntersectionExampleScenario.node[39].veinsmobility  speed  ETV
7964	744224 5025 6085 8521 94 133.5 159 0.973 11.810082123732 508.49538687659 2854.0891032743
7963	749249 4736 6085 8521 94 133.5 159 -3.5987892150879 2.5 38.511121749878 289.97413352837
7962	753985 4926 6068 8521 93.75 133.5 160 5.6500000953674 15.875 2187.4261054993 31251.807394893
7961	758911 5268 6051 8521 93.5 133.5 161 236.08911132812 483.14999389648 69584.892822266 31005020.324714
7960	764179 5266 6051 8521 93.5 133.5 161 184.17810058594 483.33880615234 63994.011108398 27176069.18173
vector 8047  IntersectionExampleScenario.node[38].veinsmobility  acceleration  ETV
vector 8048  IntersectionExampleScenario.node[38].veinsmobility  co2emission  ETV
vector 8054  IntersectionExampleScenario.node[39].veinsmobility  acceleration  ETV
vector 8055  IntersectionExampleScenario.node[39].veinsmobility  co2emission  ETV
vector 8058  IntersectionExampleScenario.node[40].veinsmobility  posx  ETV
vector 8059  IntersectionExampleScenario.node[40].veinsmobility  posy  ETV
vector 8060  IntersectionExampleScenario.node[40].veinsmobility  speed  ETV
vector 8061  IntersectionExampleScenario.node[40].veinsmobility  acceleration  ETV
vector 8062  IntersectionExampleScenario.node[40].veinsmobility  co2emission  ETV
vector 8065  IntersectionExampleScenario.node[41].veinsmobility  posx  ETV
vector 8066  IntersectionExampleScenario.node[41].veinsmobility  posy  ETV
vector 8067  IntersectionExampleScenario.node[41].veinsmobility  speed  ETV
vector 8068  IntersectionExampleScenario.node[41].veinsmobility  acceleration  ETV
vector 8069  IntersectionExampleScenario.node[41].veinsmobility  co2emission  ETV
vector 8072  IntersectionExampleScenario.node[42].veinsmobility  posx  ETV
vector 8073  IntersectionExampleScenario.node[42].veinsmobility  posy  ETV
vector 8074  IntersectionExampleScenario.node[42].veinsmobility  speed  ETV
vector 8075  IntersectionExampleScenario.node[42].veinsmobility  acceleration  ETV
vector 8076  IntersectionExampleScenario.node[42].veinsmobility  co2emission  ETV
vector 8079  IntersectionExampleScenario.node[43].veinsmobility  posx  ETV
vector 8080  IntersectionExampleScenario.node[43].veinsmobility  posy  ETV
vector 8081  IntersectionExampleScenario.node[43].veinsmobility  speed  ETV
vector 8082  IntersectionExampleScenario.node[43].veinsmobility  acceleration  ETV
vector 8083  IntersectionExampleScenario.node[43].veinsmobility  co2emission  ETV
vector 8086  IntersectionExampleScenario.node[44].veinsmobility  posx  ETV
vector 8087  IntersectionExampleScenario.node[44].veinsmobility  posy  ETV
vector 8088  IntersectionExampleScenario.node[44].veinsmobility  speed  ETV
vector 8089  IntersectionExampleScenario.node[44].veinsmobility  acceleration  ETV
vector 8090  IntersectionExampleScenario.node[44].veinsmobility  co2emission  ETV
vector 8093  IntersectionExampleScenario.node[45].veinsmobility  posx  ETV
vector 8094  IntersectionExampleScenario.node[45].veinsmobility  posy  ETV
vector 8095  IntersectionExampleScenario.node[45].veinsmobility  speed  ETV
vector 8096  IntersectionExampleScenario.node[45].veinsmobility  acceleration  ETV
vector 8097  IntersectionExampleScenario.node[45].veinsmobility  co2emission  ETV
7971	772155 6109 6139 9726 94.75 144.75 201 0.973 11.200708441096 554.35652694315 2694.6723000912
7970	778264 5603 6139 9726 94.75 144.75 201 -8.817081451416 4 36.134572982788 473.06263670059
7969	783867 5971 6121 9726 94.5 144.75 202 0 15.02499961853 2208.4680182934 30345.283863719
7968	789838 6645 6102 9726 94.25 144.75 203 184.17810058594 732.88059997559 92113.994247437 46057971.442054
7967	796483 6678 6102 9726 94.25 144.75 203 486.85000610352 486.85000610352 98830.551239014 48115654.473927
vector 8100  IntersectionExampleScenario.node[46].veinsmobility  posx  ETV
vector 8101  IntersectionExampleScenario.node[46].veinsmobility  posy  ETV
vector 8102  IntersectionExampleScenario.node[46].veinsmobility  speed  ETV
vector 8103  IntersectionExampleScenario.node[46].veinsmobility  acceleration  ETV
vector 8104  IntersectionExampleScenario.node[46].veinsmobility  co2emission  ETV
7978	803557 6250 6249 9868 96.5 146 199 0.973 11.36141391502 564.34940049043 2790.2011530754
7977	809807 5828 6249 9868 96.5 146 199 -4.5 2.5000009536743 37.32285118103 432.16045806244
7976	815635 6302 6232 9868 96.25 146 200 0 15.25 2263.2399957236 30998.78669423
7975	821937 6592 6215 9868 96 146 201 164.94219970703 483.14999389648 80741.571289062 34639397.491491
7974	828529 6608 6215 9868 96 146 201 486.85000610352 733.65498352051 106203.33880615 57138789.718929
vector 8107  IntersectionExampleScenario.node[47].veinsmobility  posx  ETV
vector 8108  IntersectionExampleScenario.node[47].veinsmobility  posy  ETV
vector 8109  IntersectionExampleScenario.node[47].veinsmobility  speed  ETV
vector 8110  IntersectionExampleScenario.node[47].veinsmobility  acceleration  ETV
vector 8111  IntersectionExampleScenario.node[47].veinsmobility  co2emission  ETV
vector 8114  IntersectionExampleScenario.node[48].veinsmobility  posx  ETV
vector 8115  IntersectionExampleScenario.node[48].veinsmobility  posy  ETV
vector 8116  IntersectionExampleScenario.node[48].veinsmobility  speed  ETV
vector 8117  IntersectionExampleScenario.node[48].veinsmobility  acceleration  ETV
vector 8118  IntersectionExampleScenario.node[48].veinsmobility  co2emission  ETV
7985	835929 5229 6847 10235 108.25 149.25 165 0.973 11.200708441096 524.42707795159 2975.2044432767
7984	841158 4898 6847 10235 108.25 149.25 165 -3.7977752685547 2.5 35.964826583862 291.60645043882
7983	846056 5211 6834 10235 108 149.25 166 5.6500000953674 15.02499961853 2209.7016096115 30209.291787232
7982	851267 5493 6821 10235 107.75 149.25 167 184.17810058594 487.02978515625 66551.007171631 28333432.851629
7981	856760 5507 6821 10235 107.75 149.25 167 235.32775878906 486.85000610352 72470.859985352 32464041.353516
vector 8121  IntersectionExampleScenario.node[49].veinsmobility  posx  ETV
vector 8122  IntersectionExampleScenario.node[49].veinsmobility  posy  ETV
vector 8123  IntersectionExampleScenario.node[49].veinsmobility  speed  ETV
vector 8124  IntersectionExampleScenario.node[49].veinsmobility  acceleration  ETV
vector 8125  IntersectionExampleScenario.node[49].veinsmobility  co2emission  ETV
8006	862663 5003 7367 11070 118 156.5 155 0.973 11.90022389248 500.52554855579 2781.3659964429
8005	867666 4507 7367 11070 118 156.5 155 -3.2846527099609 2.5 39.869146347046 241.68198894314
8004	872173 4887 7352 11070 117.75 156.5 156 5.6500000953674 16 2213.0224189758 32437.108865515
8003	877060 5211 7339 11070 117.5 156.5 157 483.14999389648 785.82187652588 89785.977348328 53106735.302482
8002	882271 5209 7339 11070 117.5 156.5 157 483.14999389648 734.23085021973 84137.686340332 46037686.260597
8013	887480 5155 7382 11227 118.25 158 160 0.973 11.990504229548 523.89349611118 2974.5173593284
8012	892635 4837 7382 11227 118.25 158 160 -4.5 2.5 40.038900375366 263.10508449551
8011	897472 5123 7367 11227 118 158 161 5.6500000953674 16.125 2323.1497268677 34324.477160367
8010	902595 5371 7352 11227 117.75 158 162 235.23229980469 810.23281097412 86594.173484802 50979680.235836
8009	907966 5389 7352 11227 117.75 158 162 483.14999389648 483.14999389648 78270.29901123 37816294.489552
vector 8128  IntersectionExampleScenario.node[50].veinsmobility  posx  ETV
vector 8129  IntersectionExampleScenario.node[50].veinsmobility  posy  ETV
vector 8135  IntersectionExampleScenario.node[51].veinsmobility  posx  ETV
vector 8136  IntersectionExampleScenario.node[51].veinsmobility  posy  ETV
vector 8130  IntersectionExampleScenario.node[50].veinsmobility  speed  ETV
vector 8131  IntersectionExampleScenario.node[50].veinsmobility  acceleration  ETV
vector 8132  IntersectionExampleScenario.node[50].veinsmobility  co2emission  ETV
vector 8137  IntersectionExampleScenario.node[51].veinsmobility  speed  ETV
vector 8138  IntersectionExampleScenario.node[51].veinsmobility  acceleration  ETV
vector 8139  IntersectionExampleScenario.node[51].veinsmobility  co2emission  ETV
7992	914147 6265 6981 11555 110.75 161.5 204 0.973 11.200708441096 553.91812800753 2664.806822421
7991	920412 5746 6981 11555 110.75 161.5 204 -6.8640689849854 4 35.625318527222 447.68975026733
7990	926158 6110 6966 11555 110.5 161.5 205 0 15.02499961853 2205.7956194878 30004.684011173
7989	932268 6855 6951 11555 110.25 161.5 206 235.62408447266 486.85000610352 91429.874511719 41683467.196609
7988	939123 6850 6951 11555 110.25 161.5 206 483.14999389648 785.82187652588 114728.31861115 65886447.75677
vector 8142  IntersectionExampleScenario.node[52].veinsmobility  posx  ETV
vector 8143  IntersectionExampleScenario.node[52].veinsmobility  posy  ETV
vector 8144  IntersectionExampleScenario.node[52].veinsmobility  speed  ETV
vector 8145  IntersectionExampleScenario.node[52].veinsmobility  acceleration  ETV
vector 8146  IntersectionExampleScenario.node[52].veinsmobility  co2emission  ETV
vector 8149  IntersectionExampleScenario.node[53].veinsmobility  posx  ETV
vector 8150  IntersectionExampleScenario.node[53].veinsmobility  posy  ETV
vector 8151  IntersectionExampleScenario.node[53].veinsmobility  speed  ETV
vector 8152  IntersectionExampleScenario.node[53].veinsmobility  acceleration  ETV
vector 8153  IntersectionExampleScenario.node[53].veinsmobility  co2emission  ETV
8020	946765 5253 7537 11703 120.75 163 170 0.973 12.26218747632 564.45984526337 3432.8150443745
8019	952018 5263 7537 11703 120.75 163 170 -3.3928451538086 2.5 41.227170944214 354.29907245317
8018	957281 5351 7520 11703 120.5 163 171 5.1822938919067 16.5 2178.143611908 30267.583797408
8017	962632 5730 7503 11703 120.25 163 172 486.85000610352 731.43104553223 91466.55619812 49547439.593988
8016	968362 5724 7503 11703 120.25 163 172 486.85000610352 785.82187652588 98034.322608948 57598908.321953
7999	974086 5939 7250 11753 115.75 163.5 192 0.97223939240464 11.648172402475 563.7449836091 2844.1715917196
7998	980025 5657 7250 11753 115.75 163.5 192 -7.1630792617798 4 38.680875778198 483.39481120656
7997	985682 5793 7235 11753 115.5 163.5 193 0 15.64999961853 2176.6697137356 30679.550099888
7996	991475 6461 7220 11753 115.25 163.5 194 237.80670166016 483.14999389648 85640.385406494 38786004.633673
7995	997936 6438 7220 11753 115.25 163.5 194 184.17810058594 483.24322509766 79534.596405029 34492244.163269
vector 8156  IntersectionExampleScenario.node[54].veinsmobility  posx  ETV
vector 8157  IntersectionExampleScenario.node[54].veinsmobility  posy  ETV
vector 8158  IntersectionExampleScenario.node[54].veinsmobility  speed  ETV
vector 8159  IntersectionExampleScenario.node[54].veinsmobility  acceleration  ETV
vector 8160  IntersectionExampleScenario.node[54].veinsmobility  co2emission  ETV
8041	1004770 5047 8096 12119 128 167 157 0.973 11.54047740176 494.03052278277 2758.5927227873
8040	1009817 4954 8096 12119 128 167 157 -3.0357131958008 2.5 37.492597579956 222.86601033996
8039	1014771 5060 8073 12119 127.75 167 158 5.6500000953674 15.5 2217.8407297134 31717.464534987
8038	1019831 5326 8050 12119 127.5 167 159 486.85000610352 486.85000610352 77409.150970459 37686645.622436
8037	1025157 5316 8050 12119 127.5 167 159 236.25610351562 785.82187652588 82954.940940857 47485282.306801
vector 8163  IntersectionExampleScenario.node[55].veinsmobility  posx  ETV
vector 8164  IntersectionExampleScenario.node[55].veinsmobility  posy  ETV
vector 8165  IntersectionExampleScenario.node[55].veinsmobility  speed  ETV
vector 8166  IntersectionExampleScenario.node[55].veinsmobility  acceleration  ETV
vector 8167  IntersectionExampleScenario.node[55].veinsmobility  co2emission  ETV
8048	1030869 4939 8542 12575 133.75 171.25 151 0.973 11.54047740176 480.25183126639 2457.3877211014
8047	1035808 4526 8542 12575 133.75 171.25 151 -3.3423728942871 2.5 40.038900375366 193.08438145332
8046	1040334 4886 8521 12575 133.5 171.25 152 5.6500000953674 15.715113639832 2213.3734951019 32959.217036525
8045	1045220 5147 8500 12575 133.25 171.25 153 486.85000610352 486.85000610352 74488.050933838 36264508.051778
8044	1050367 5134 8500 12575 133.25 171.25 153 237.67932128906 785.82187652588 79959.215232849 45835629.978274
8055	1055501 5351 8542 12865 133.75 174.25 163 0.973 11.200708441096 475.61953614746 2365.5761666609
8054	1060852 4846 8542 12865 133.75 174.25 163 -3.4446563720703 2.5 35.625318527222 215.96661670064
8053	1065698 5248 8521 12865 133.5 174.25 164 5.6500000953674 15.02499961853 2213.7567129135 30634.361411764
8052	1070946 5528 8500 12865 133.25 174.25 165 483.14999389648 734.69891357422 88608.474945068 48596747.200608
8051	1076474 5529 8500 12865 133.25 174.25 165 184.17810058594 486.85000610352 65801.938751221 28063061.90173
vector 8170  IntersectionExampleScenario.node[56].veinsmobility  posx  ETV
vector 8171  IntersectionExampleScenario.node[56].veinsmobility  posy  ETV
vector 8172  IntersectionExampleScenario.node[56].veinsmobility  speed  ETV
8034	1082232 6176 7819 12933 124.75 175 202 0.973 11.810082123732 576.61690306039 3049.5101617949
8033	1088408 6020 7819 12933 124.75 175 202 -7.6698846817017 4 39.020376205444 494.92006579548
8032	1094428 5964 7798 12933 124.5 175 203 0 15.875 2172.4154651165 30870.098567147
8031	1100392 6812 7777 12933 124.25 175 204 184.17810058594 483.36395263672 84289.677764893 36746714.19358
8030	1107204 6775 7777 12933 124.25 175 204 486.85000610352 731.89318847656 107332.6574707 57462349.842331
8027	1113979 6232 7798 12933 124.5 175 203 0.973 11.648172402475 577.80900281727 2972.5673690199
8026	1120211 5602 7798 12933 124.5 175 203 -7.3538436889648 4 38.850629806519 478.64891331646
8025	1125813 6065 7777 12933 124.25 175 204 0 15.64999961853 2203.5454969406 31430.748992467
8024	1131878 6861 7758 12933 124 175 205 238.74694824219 785.82187652588 105945.12888336 58848373.302736
8023	1138739 6875 7758 12933 124 175 205 483.14999389648 483.14999389648 99045.748748779 47853952.903445
vector 8173  IntersectionExampleScenario.node[56].veinsmobility  acceleration  ETV
vector 8174  IntersectionExampleScenario.node[56].veinsmobility  co2emission  ETV
8083	1145781 4985 9092 13160 139.25 177.5 154 0.973 12.255936792953 566.31610429079 3581.1356550371
8082	1150766 4848 9092 13160 139.25 177.5 154 -3.9297218322754 2.5000038146973 41.396924972534 332.18629232957
8081	1155614 5013 9063 13160 139 177.5 155 5.6500000953674 16.491371154785 2216.2340641022 32598.166640384
8080	1160627 5230 9034 13160 138.75 177.5 156 184.17810058594 733.03442382812 69633.401306152 35090934.09748
8079	1165857 5270 9034 13160 138.75 177.5 156 486.85000610352 486.85000610352 75948.600952148 36975576.837107
8069	1171127 5356 8770 13202 136.25 178 168 0.973 11.648172402475 542.35845386498 3101.1634626955
8068	1176483 5092 8770 13202 136.25 178 168 -2.8183212280273 2.5 38.511121749878 311.7861537468
8067	1181575 5414 8745 13202 136 178 169 5.6500000953674 15.64999961853 2204.9523353577 30238.307927485
8066	1186989 5721 8720 13202 135.75 178 170 483.11911010742 785.82187652588 96931.089698792 57050457.09269
8065	1192710 5726 8720 13202 135.75 178 170 483.14999389648 732.19506835938 90458.356719971 49106871.304229
8104	1198436 5174 9839 13665 145.75 184.5 156 0.973 11.648172402475 493.90941315021 2648.9847892372
8103	1203610 4767 9839 13665 145.75 184.5 156 -3.461986541748 2.5 38.850629806519 242.6599617358
8102	1208377 5047 9810 13665 145.5 184.5 157 5.6500000953674 15.64999961853 2207.1753911972 31976.12542179
8101	1213424 5346 9781 13665 145.25 184.5 158 184.17810058594 486.87814331055 62870.129119873 26783711.59061
8100	1218770 5316 9781 13665 145.25 184.5 158 236.89172363281 486.85000610352 68582.356384277 30717428.404153
8111	1224086 5424 10015 13853 147.25 188.25 165 0.973 11.450879080643 488.52417375405 2503.8961024843
8110	1229510 5057 10015 13853 147.25 188.25 165 -3.343635559082 2.5 36.98334312439 216.10987660129
8109	1234567 5358 9986 13853 147 188.25 166 5.6500000953674 15.375 2283.7810258865 32257.020194999
8108	1239925 5634 9955 13853 146.75 188.25 167 163.88433837891 486.85000610352 65121.644073486 27510357.440771
8107	1245559 5666 9955 13853 146.75 188.25 167 238.09307861328 486.85000610352 72802.0703125 32714523.804768
8118	1251225 5293 10235 13875 149.25 188.75 159 0.973 11.200708441096 454.02019127521 2190.5961140274
8117	1256518 4799 10235 13875 149.25 188.75 159 -3.3945121765137 2.5 35.625318527222 173.50564863248
8116	1261317 5218 10206 13875 149 188.75 160 5.6500000953674 15.02499961853 2209.7530469894 31019.862813876
8115	1266535 5456 10177 13875 148.75 188.75 161 238.29858398438 785.82187652588 83905.765296936 47970045.691832
8114	1271991 5475 10177 13875 148.75 188.75 161 483.14999389648 483.14999389648 77787.149017334 37582860.57295
8062	1277466 6891 8651 13971 135 191.25 226 0.973 11.648172402475 621.47626816902 3197.6454493757
8061	1284357 6075 8651 13971 135 191.25 226 -7.6103534698486 4 38.341367721558 563.10395505187
8060	1290432 6579 8628 13971 134.75 191.25 227 0 15.64999961853 2262.86495924 32047.265791313
8059	1297011 7631 8605 13971 134.5 191.25 228 486.85000610352 733.04777526855 119183.54919434 63346186.168209
8058	1304642 7679 8605 13971 134.5 191.25 228 486.63604736328 807.09531402588 127416.55542755 73582067.299035
vector 8177  IntersectionExampleScenario.node[57].veinsmobility  posx  ETV
vector 8178  IntersectionExampleScenario.node[57].veinsmobility  posy  ETV
vector 8179  IntersectionExampleScenario.node[57].veinsmobility  speed  ETV
vector 8180  IntersectionExampleScenario.node[57].veinsmobility  acceleration  ETV
vector 8181  IntersectionExampleScenario.node[57].veinsmobility  co2emission  ETV
vector 8184  IntersectionExampleScenario.node[58].veinsmobility  posx  ETV
vector 8185  IntersectionExampleScenario.node[58].veinsmobility  posy  ETV
vector 8186  IntersectionExampleScenario.node[58].veinsmobility  speed  ETV
vector 8191  IntersectionExampleScenario.node[59].veinsmobility  posx  ETV
vector 8192  IntersectionExampleScenario.node[59].veinsmobility  posy  ETV
vector 8187  IntersectionExampleScenario.node[58].veinsmobility  acceleration  ETV
vector 8188  IntersectionExampleScenario.node[58].veinsmobility  co2emission  ETV
8076	1313265 7321 8899 14046 137.5 193.75 226 0.97223939240464 11.648172402475 608.50242420246 2963.9303837728
8075	1320586 6900 8899 14046 137.5 193.75 226 -4.5 2.5 38.680875778198 436.89509298078
8074	1327486 7417 8872 14046 137.25 193.75 227 0 15.64999961853 2296.5918234363 32058.550293519
8073	1334903 7703 8845 14046 137 193.75 228 486.85000610352 735.08447265625 119279.41217041 63465562.711704
8072	1342606 7692 8845 14046 137 193.75 228 486.85000610352 812.05235290527 128259.09552002 74565314.342429
vector 8193  IntersectionExampleScenario.node[59].veinsmobility  speed  ETV
vector 8194  IntersectionExampleScenario.node[59].veinsmobility  acceleration  ETV
vector 8195  IntersectionExampleScenario.node[59].veinsmobility  co2emission  ETV
8097	1350542 6599 9523 14101 143 195 209 0.973 11.648172402475 583.24264650354 2889.310969891
8096	1357141 6774 9523 14101 143 195 209 -4.0246047973633 2.5 40.208654403687 368.28899532445
8095	1363915 6863 9494 14101 142.75 195 210 0 15.759625434875 2153.2721032035 29408.049363725
8094	1370778 7130 9465 14101 142.5 195 211 237.64959716797 486.85000610352 94583.975128174 43432840.20983
8093	1377908 7130 9465 14101 142.5 195 211 483.12615966797 773.5735168457 116845.01747894 66390349.391446
8090	1385038 7112 9350 14211 141.5 197.5 225 0.973 11.058880717897 603.62117613434 2889.0688017258
8089	1392150 7209 9350 14211 141.5 197.5 225 -4.5 2.5000009536743 38.511121749878 402.71740758483
8088	1399359 7370 9321 14211 141.25 197.5 226 0 15.460066795349 2281.5976916067 29451.700235433
8087	1406729 7682 9292 14211 141 197.5 227 237.85357666016 486.85000610352 102194.91067505 47082931.36352
8086	1414411 7671 9292 14211 141 197.5 227 483.11904907227 805.13712310791 129799.05848694 76645539.585785
vector 8198  IntersectionExampleScenario.node[60].veinsmobility  posx  ETV
vector 8199  IntersectionExampleScenario.node[60].veinsmobility  posy  ETV
vector 8200  IntersectionExampleScenario.node[60].veinsmobility  speed  ETV
vector 8201  IntersectionExampleScenario.node[60].veinsmobility  acceleration  ETV
vector 8202  IntersectionExampleScenario.node[60].veinsmobility  co2emission  ETV
8132	1422478 5040 11480 14258 160.75 198.5 152 0.973 12.099024792222 511.02442324796 2854.2959358802
8131	1427518 4694 11480 14258 160.75 198.5 152 -3.530086517334 2.5 41.396924972534 256.28593242955
8130	1432212 4918 11455 14258 160.5 198.5 153 5.6500000953674 16.27499961853 2209.7012586594 33049.543425906
8129	1437130 5219 11432 14258 160.25 198.5 154 483.14999389648 733.48651123047 82467.586807251 45081043.790553
8128	1442349 5205 11432 14258 160.25 198.5 154 184.17810058594 486.85000610352 61265.275756836 26108782.580839
8139	1447554 5038 11505 14324 161 200 157 0.973 12.234111345066 583.38568822592 3801.777754352
8138	1452592 4693 11505 14324 161 200 157 -3.8286437988281 2.5000038146973 41.90619468689 372.86198687027
8137	1457285 5038 11480 14324 160.75 200 158 5.6500000953674 16.461307525635 2181.1585941315 31679.868594707
8136	1462323 5398 11455 14324 160.5 200 159 486.85000610352 732.07109069824 85105.859573364 46432855.625159
8135	1467721 5398 11455 14324 160.5 200 159 486.66665649414 785.82187652588 91082.958259583 53877237.298406
vector 8205  IntersectionExampleScenario.node[61].veinsmobility  posx  ETV
vector 8206  IntersectionExampleScenario.node[61].veinsmobility  posy  ETV
vector 8212  IntersectionExampleScenario.node[62].veinsmobility  posx  ETV
vector 8213  IntersectionExampleScenario.node[62].veinsmobility  posy  ETV
vector 8207  IntersectionExampleScenario.node[61].veinsmobility  speed  ETV
vector 8214  IntersectionExampleScenario.node[62].veinsmobility  speed  ETV
8146	1473577 5598 11630 14526 162.25 204.5 170 0.973 11.200708441096 501.80403214121 2557.3255639532
8145	1479175 5239 11630 14526 162.25 204.5 170 -3.487003326416 2.5 35.625318527222 266.20469223155
8144	1484414 5503 11606 14526 162 204.5 171 5.6500000953674 15.02499961853 2260.4908323288 31018.800666097
8143	1489917 5839 11580 14526 161.75 204.5 172 237.78308105469 483.14999389648 74613.23059082 33333202.329815
8142	1495756 5810 11580 14526 161.75 204.5 172 163.88433837891 483.14999389648 67034.639526367 28230878.488051
vector 8219  IntersectionExampleScenario.node[63].veinsmobility  posx  ETV
vector 8220  IntersectionExampleScenario.node[63].veinsmobility  posy  ETV
vector 8208  IntersectionExampleScenario.node[61].veinsmobility  acceleration  ETV
vector 8209  IntersectionExampleScenario.node[61].veinsmobility  co2emission  ETV
vector 8215  IntersectionExampleScenario.node[62].veinsmobility  acceleration  ETV
vector 8216  IntersectionExampleScenario.node[62].veinsmobility  co2emission  ETV
vector 8221  IntersectionExampleScenario.node[63].veinsmobility  speed  ETV
vector 8222  IntersectionExampleScenario.node[63].veinsmobility  acceleration  ETV
vector 8223  IntersectionExampleScenario.node[63].veinsmobility  co2emission  ETV
8153	1502296 5583 11703 14626 163 206 173 0.973 11.90022389248 557.33299561788 3061.2542060688
8152	1507879 5134 11703 14626 163 206 173 -6.9388580322266 4 39.869146347046 483.42859168984
8151	1513013 5498 11678 14626 162.75 206 174 0 16 2206.8656001091 31827.855714461
8150	1518511 5926 11653 14626 162.5 206 175 184.17810058594 486.85000610352 70943.356231689 30600588.593832
8149	1524437 5944 11653 14626 162.5 206 175 235.83721923828 486.85000610352 76926.715637207 34807566.513963
8125	1530381 6856 10495 14659 151.5 206.5 221 0.973 11.450879080643 611.38177935096 3082.165338076
8124	1537237 5794 10495 14659 151.5 206.5 221 -22.842597961426 4 37.492597579956 968.50475167291
8123	1543031 6531 10466 14659 151.25 206.5 222 0 15.375 2272.6348056793 32104.373019826
8122	1549562 7573 10437 14659 151 206.5 223 483.14999389648 802.70781707764 124413.58196259 71739974.734563
8121	1557135 7572 10437 14659 151 206.5 223 483.14999389648 733.76802062988 116297.99649048 61752485.470778
8160	1564707 5532 11957 14794 165.5 208.75 174 0.973 11.810082123732 556.28730191451 3153.8597571121
8159	1570239 5420 11957 14794 165.5 208.75 174 -2.9024963378906 2.5000019073486 39.869146347046 336.76354956343
8158	1575659 5637 11930 14794 165.25 208.75 175 4.7434387207031 15.875 2189.8238697052 29891.498859961
8157	1581296 5972 11903 14794 165 208.75 176 486.66470336914 785.82187652588 100188.31371307 58781929.075816
8156	1587268 5981 11903 14794 165 208.75 176 235.94750976562 483.14999389648 76983.831817627 34627381.316825
8174	1593249 5271 12956 15169 175.25 215 160 0.973 11.450879080643 484.27670041813 2555.9898540024
8173	1598520 5116 12956 15169 175.25 215 160 -3.4087982177734 2.5 36.98334312439 230.60981583136
8172	1603636 5185 12933 15169 175 215 161 5.6500000953674 15.375 2215.0066385269 31304.185527978
8171	1608821 5501 12910 15169 174.75 215 162 483.13018798828 785.82187652588 92599.220741272 54729399.15064
8170	1614322 5492 12910 15169 174.75 215 162 483.14999389648 735.13244628906 86988.808776855 47706003.150507
vector 8226  IntersectionExampleScenario.node[64].veinsmobility  posx  ETV
vector 8227  IntersectionExampleScenario.node[64].veinsmobility  posy  ETV
vector 8228  IntersectionExampleScenario.node[64].veinsmobility  speed  ETV
vector 8229  IntersectionExampleScenario.node[64].veinsmobility  acceleration  ETV
vector 8230  IntersectionExampleScenario.node[64].veinsmobility  co2emission  ETV
8167	1620210 6472 12359 15571 169.25 221.75 211 0.973 12.099024792222 604.65479673803 3275.2583191525
8166	1626682 6107 12359 15571 169.25 221.75 211 -9.8618412017822 4 40.887662887573 563.94233916761
8165	1632789 6204 12332 15571 169 221.75 212 0 16.27499961853 2201.8490381241 32332.127903124
8164	1638993 7240 12305 15571 168.75 221.75 213 236.69555664062 486.85000610352 95603.210693359 43950898.08156
8163	1646233 7237 12305 15571 168.75 221.75 213 483.14999389648 785.82187652588 117597.02411652 66892985.902819
vector 8233  IntersectionExampleScenario.node[65].veinsmobility  posx  ETV
vector 8234  IntersectionExampleScenario.node[65].veinsmobility  posy  ETV
vector 8240  IntersectionExampleScenario.node[66].veinsmobility  posx  ETV
vector 8241  IntersectionExampleScenario.node[66].veinsmobility  posy  ETV
vector 8235  IntersectionExampleScenario.node[65].veinsmobility  speed  ETV
vector 8236  IntersectionExampleScenario.node[65].veinsmobility  acceleration  ETV
vector 8237  IntersectionExampleScenario.node[65].veinsmobility  co2emission  ETV
vector 8242  IntersectionExampleScenario.node[66].veinsmobility  speed  ETV
vector 8243  IntersectionExampleScenario.node[66].veinsmobility  acceleration  ETV
vector 8244  IntersectionExampleScenario.node[66].veinsmobility  co2emission  ETV
vector 8247  IntersectionExampleScenario.node[67].veinsmobility  posx  ETV
vector 8248  IntersectionExampleScenario.node[67].veinsmobility  posy  ETV
vector 8249  IntersectionExampleScenario.node[67].veinsmobility  speed  ETV
vector 8250  IntersectionExampleScenario.node[67].veinsmobility  acceleration  ETV
vector 8251  IntersectionExampleScenario.node[67].veinsmobility  co2emission  ETV
vector 8254  IntersectionExampleScenario.node[68].veinsmobility  posx  ETV
vector 8255  IntersectionExampleScenario.node[68].veinsmobility  posy  ETV
vector 8256  IntersectionExampleScenario.node[68].veinsmobility  speed  ETV
vector 8257  IntersectionExampleScenario.node[68].veinsmobility  acceleration  ETV
vector 8258  IntersectionExampleScenario.node[68].veinsmobility  co2emission  ETV
vector 8261  IntersectionExampleScenario.node[69].veinsmobility  posx  ETV
vector 8262  IntersectionExampleScenario.node[69].veinsmobility  posy  ETV
vector 8268  IntersectionExampleScenario.node[70].veinsmobility  posx  ETV
vector 8269  IntersectionExampleScenario.node[70].veinsmobility  posy  ETV
vector 8263  IntersectionExampleScenario.node[69].veinsmobility  speed  ETV
vector 8275  IntersectionExampleScenario.node[71].veinsmobility  posx  ETV
vector 8276  IntersectionExampleScenario.node[71].veinsmobility  posy  ETV
vector 8264  IntersectionExampleScenario.node[69].veinsmobility  acceleration  ETV
vector 8265  IntersectionExampleScenario.node[69].veinsmobility  co2emission  ETV
vector 8270  IntersectionExampleScenario.node[70].veinsmobility  speed  ETV
vector 8271  IntersectionExampleScenario.node[70].veinsmobility  acceleration  ETV
vector 8272  IntersectionExampleScenario.node[70].veinsmobility  co2emission  ETV
vector 8277  IntersectionExampleScenario.node[71].veinsmobility  speed  ETV
vector 8278  IntersectionExampleScenario.node[71].veinsmobility  acceleration  ETV
vector 8279  IntersectionExampleScenario.node[71].veinsmobility  co2emission  ETV
8188	1656242 5370 14046 16139 193.75 234.25 163 0.973 11.36141391502 494.04989772083 2587.9615589011
8187	1661612 5017 14046 16139 193.75 234.25 163 -3.304105758667 2.5 36.474081039429 263.08808222632
8186	1666629 5259 14037 16139 193.5 234.25 164 5.6500000953674 15.25 2179.5618395805 30176.027668011
8185	1671888 5605 14028 16139 193.25 234.25 165 486.85000610352 732.18013000488 88695.900482178 48619160.416014
8184	1677493 5604 14028 16139 193.25 234.25 165 486.82391357422 785.82187652588 94430.932395935 55813682.990122
8181	1683097 5655 14014 16309 192.75 236.75 177 0.973 12.099024792222 566.57493080959 3211.4203916765
8180	1688752 5452 14014 16309 192.75 236.75 177 -8.5031824111938 4 40.378400802612 511.54601133652
8179	1694204 5583 14007 16309 192.5 236.75 178 0 16.27499961853 2209.8754968643 32226.318643594
8178	1699787 6062 13999 16309 192.25 236.75 179 237.24304199219 785.82187652588 92891.408744812 52249603.853597
8177	1705849 6088 13999 16309 192.25 236.75 179 483.14999389648 483.14999389648 86483.848907471 41784671.071789
8202	1711937 5144 14258 16343 198.5 237.25 156 0.973 11.648172402475 492.14651342496 2594.7828675867
8201	1717081 4802 14258 16343 198.5 237.25 156 -2.8598365783691 2.5 38.511121749878 213.90572816084
8200	1721883 5100 14246 16343 198.25 237.25 157 5.6500000953674 15.64999961853 2224.3303451538 32195.605915907
8199	1726983 5346 14233 16343 198 237.25 158 184.17810058594 735.05157470703 71025.937667847 36099819.79702
8198	1732329 5371 14233 16343 198 237.25 158 486.85000610352 486.85000610352 76922.300964355 37449622.693993
vector 8282  IntersectionExampleScenario.node[72].veinsmobility  posx  ETV
vector 8283  IntersectionExampleScenario.node[72].veinsmobility  posy  ETV
vector 8289  IntersectionExampleScenario.node[73].veinsmobility  posx  ETV
vector 8290  IntersectionExampleScenario.node[73].veinsmobility  posy  ETV
vector 8284  IntersectionExampleScenario.node[72].veinsmobility  speed  ETV
vector 8285  IntersectionExampleScenario.node[72].veinsmobility  acceleration  ETV
vector 8286  IntersectionExampleScenario.node[72].veinsmobility  co2emission  ETV
vector 8291  IntersectionExampleScenario.node[73].veinsmobility  speed  ETV
vector 8292  IntersectionExampleScenario.node[73].veinsmobility  acceleration  ETV
vector 8293  IntersectionExampleScenario.node[73].veinsmobility  co2emission  ETV
vector 8296  IntersectionExampleScenario.node[74].veinsmobility  posx  ETV
vector 8297  IntersectionExampleScenario.node[74].veinsmobility  posy  ETV
vector 8298  IntersectionExampleScenario.node[74].veinsmobility  speed  ETV
8195	1738721 5790 14068 16465 194.25 238.75 179 0.973 11.648172402475 555.87358588647 2931.6440643342
8194	1744511 5826 14068 16465 194.25 238.75 179 -4.5 2.5 39.020376205444 383.48374833174
8193	1750337 5990 14057 16465 194 238.75 180 1.6203498840332 15.754628181458 2288.5752722025 32398.184232954
8192	1756327 6137 14046 16465 193.75 238.75 181 238.79840087891 806.11563110352 95899.877182007 55341359.580713
8191	1762464 6155 14046 16465 193.75 238.75 181 483.14999389648 483.14999389648 87450.148895264 42251538.904993
vector 8299  IntersectionExampleScenario.node[74].veinsmobility  acceleration  ETV
vector 8300  IntersectionExampleScenario.node[74].veinsmobility  co2emission  ETV
8209	1768786 4877 14541 16765 204.75 242 150 0.973 12.308999265057 519.87369404305 3233.8903963144
8208	1773663 4479 14541 16765 204.75 242 150 -3.4772262573242 2.5 41.396924972534 251.81118973648
8207	1778142 4901 14526 16765 204.5 242 151 5.6500000953674 16.564435958862 2213.9863367081 33262.195679488
8206	1783043 5160 14511 16765 204.25 242 152 237.82775878906 785.82187652588 79573.347190857 45642900.511509
8205	1788203 5168 14511 16765 204.25 242 152 483.14999389648 483.14999389648 73438.799072266 35481955.32353
vector 8303  IntersectionExampleScenario.node[75].veinsmobility  posx  ETV
vector 8304  IntersectionExampleScenario.node[75].veinsmobility  posy  ETV
8216	1793523 5287 14541 16972 204.75 244.25 159 0.973 11.200708441096 454.35911991347 2192.1748794677
8215	1798810 4792 14541 16972 204.75 244.25 159 -2.9507179260254 2.5 35.795072555542 167.29327392471
8214	1803602 5224 14526 16972 204.5 244.25 160 5.6500000953674 15.02499961853 2213.0092506409 31119.00031273
8213	1808826 5447 14511 16972 204.25 244.25 161 184.17810058594 732.51210021973 72318.647079468 36736366.158695
8212	1814273 5475 14511 16972 204.25 244.25 161 486.85000610352 486.85000610352 78382.850982666 38160691.479322
vector 8305  IntersectionExampleScenario.node[75].veinsmobility  speed  ETV
vector 8306  IntersectionExampleScenario.node[75].veinsmobility  acceleration  ETV
vector 8307  IntersectionExampleScenario.node[75].veinsmobility  co2emission  ETV
8223	1819992 5425 14575 17172 205.25 246.25 165 0.95532711077743 11.917427265055 561.25661238497 3269.0334414488
8222	1825417 5220 14575 17172 205.25 246.25 165 -4.5013961791992 2.5 39.699392318726 355.81580837816
8221	1830637 5324 14558 17172 205 246.25 166 5.6500000953674 16.023834228516 2282.8527870178 32845.511497494
8220	1835961 5669 14541 17172 204.75 246.25 167 486.82809448242 809.56562805176 97334.64616394 58854019.600997
8219	1841630 5657 14541 17172 204.75 246.25 167 235.83154296875 483.14999389648 72602.658691406 32500168.247387
vector 8310  IntersectionExampleScenario.node[76].veinsmobility  posx  ETV
vector 8311  IntersectionExampleScenario.node[76].veinsmobility  posy  ETV
vector 8312  IntersectionExampleScenario.node[76].veinsmobility  speed  ETV
vector 8313  IntersectionExampleScenario.node[76].veinsmobility  acceleration  ETV
vector 8314  IntersectionExampleScenario.node[76].veinsmobility  co2emission  ETV
vector 8317  IntersectionExampleScenario.node[77].veinsmobility  posx  ETV
vector 8318  IntersectionExampleScenario.node[77].veinsmobility  posy  ETV
vector 8324  IntersectionExampleScenario.node[78].veinsmobility  posx  ETV
vector 8325  IntersectionExampleScenario.node[78].veinsmobility  posy  ETV
vector 8319  IntersectionExampleScenario.node[77].veinsmobility  speed  ETV
vector 8320  IntersectionExampleScenario.node[77].veinsmobility  acceleration  ETV
vector 8321  IntersectionExampleScenario.node[77].veinsmobility  co2emission  ETV
vector 8326  IntersectionExampleScenario.node[78].veinsmobility  speed  ETV
vector 8327  IntersectionExampleScenario.node[78].veinsmobility  acceleration  ETV
vector 8328  IntersectionExampleScenario.node[78].veinsmobility  co2emission  ETV
vector 8331  IntersectionExampleScenario.node[79].veinsmobility  posx  ETV
vector 8332  IntersectionExampleScenario.node[79].veinsmobility  posy  ETV
vector 8338  IntersectionExampleScenario.node[80].veinsmobility  posx  ETV
vector 8339  IntersectionExampleScenario.node[80].veinsmobility  posy  ETV
vector 8333  IntersectionExampleScenario.node[79].veinsmobility  speed  ETV
vector 8340  IntersectionExampleScenario.node[80].veinsmobility  speed  ETV
vector 8334  IntersectionExampleScenario.node[79].veinsmobility  acceleration  ETV
vector 8335  IntersectionExampleScenario.node[79].veinsmobility  co2emission  ETV
vector 8341  IntersectionExampleScenario.node[80].veinsmobility  acceleration  ETV
vector 8342  IntersectionExampleScenario.node[80].veinsmobility  co2emission  ETV
8230	1849267 6304 15322 18877 217.5 268 203 0.973 11.90022389248 586.52299561788 3089.6560760688
8229	1855571 5735 15322 18877 217.5 268 203 -6.9388580322266 4 39.869146347046 483.42859174969
8228	1861306 6097 15306 18877 217.25 268 204 0 16 2206.8655982018 31827.855697043
8227	1867403 6958 15289 18877 217 268 205 483.14999389648 785.82187652588 113758.64406586 65080054.760261
8226	1874361 6962 15289 18877 217 268 205 483.14999389648 734.16282653809 107317.78419495 57230255.71899
8251	1881323 5674 15800 19054 226.75 271.25 179 0.973 11.648172402475 539.73936353041 2866.7453289632
8250	1886997 5333 15800 19054 226.75 271.25 179 -6.93053150177 4 38.171613693237 493.43374926381
8249	1892330 5556 15785 19054 226.5 271.25 180 0 15.64999961853 2063.4471523762 28839.591178744
8248	1897886 6132 15770 19054 226.25 271.25 181 214.94219970703 483.24322509766 75806.270141602 33158190.505985
8247	1904018 6150 15770 19054 226.25 271.25 181 486.85000610352 735.06184387207 96451.593109131 52388506.663973
vector 8345  IntersectionExampleScenario.node[81].veinsmobility  posx  ETV
vector 8346  IntersectionExampleScenario.node[81].veinsmobility  posy  ETV
vector 8347  IntersectionExampleScenario.node[81].veinsmobility  speed  ETV
vector 8348  IntersectionExampleScenario.node[81].veinsmobility  acceleration  ETV
vector 8349  IntersectionExampleScenario.node[81].veinsmobility  co2emission  ETV
8237	1910564 6031 15705 19091 225 272 189 0.973 11.54047740176 577.63362141866 2941.0387796176
8236	1916595 5765 15705 19091 225 272 189 -4.5 2.5 38.680875778198 533.35626093848
8235	1922360 5974 15692 19091 224.75 272 190 0 15.556571960449 2216.7374968529 30567.278912384
8234	1928334 6472 15681 19091 224.5 272 191 184.17810058594 733.63768005371 84648.445083618 41996007.651192
8233	1934806 6493 15681 19091 224.5 272 191 486.85000610352 486.85000610352 92988.351165771 45271379.332612
vector 8352  IntersectionExampleScenario.node[82].veinsmobility  posx  ETV
vector 8353  IntersectionExampleScenario.node[82].veinsmobility  posy  ETV
vector 8354  IntersectionExampleScenario.node[82].veinsmobility  speed  ETV
vector 8355  IntersectionExampleScenario.node[82].veinsmobility  acceleration  ETV
vector 8356  IntersectionExampleScenario.node[82].veinsmobility  co2emission  ETV
8265	1941695 5129 16105 19149 233.75 273 158 0.973 11.760951866791 536.72477624554 3272.1775510166
8264	1946824 5130 16105 19149 233.75 273 158 -3.5223274230957 2.5 38.341367721558 305.10594175969
8263	1951954 5354 16090 19149 233.5 273 159 5.6500000953674 15.806790351868 2205.4129886627 31529.103084091
8262	1957308 5433 16077 19149 233.25 273 160 483.14999389648 785.82187652588 91507.298606873 54109737.112799
8261	1962741 5433 16077 19149 233.25 273 160 483.14999389648 732.2281036377 85650.305557251 46799372.62666
vector 8359  IntersectionExampleScenario.node[83].veinsmobility  posx  ETV
vector 8360  IntersectionExampleScenario.node[83].veinsmobility  posy  ETV
vector 8361  IntersectionExampleScenario.node[83].veinsmobility  speed  ETV
vector 8362  IntersectionExampleScenario.node[83].veinsmobility  acceleration  ETV
vector 8363  IntersectionExampleScenario.node[83].veinsmobility  co2emission  ETV
8272	1968570 5394 16122 19262 234 274.75 164 0.973 11.914341686093 530.60507323081 2928.1661902062
8271	1973964 5161 16122 19262 234 274.75 164 -4.5 2.5 39.529638290405 270.75382114938
8270	1979125 5335 16105 19262 233.75 274.75 165 5.6500000953674 16.019559860229 2301.8261985779 33180.895149338
8269	1984460 5637 16090 19262 233.5 274.75 166 483.14001464844 810.23281097412 96841.696243286 58694858.605143
8268	1990097 5635 16090 19262 233.5 274.75 166 483.14999389648 731.93011474609 88382.550979614 48008616.523609
8244	1995732 6416 15718 19262 225.25 274.75 199 0.973 11.450879080643 577.37570762522 2822.2873947
8243	2002148 6370 15718 19262 225.25 274.75 199 -4.5 2.5 38.341367721558 392.59270487148
8242	2008518 6536 15705 19262 225 274.75 200 1.1468107700348 15.493535041809 2305.2239677906 30636.869807018
8241	2015054 6803 15692 19262 224.75 274.75 201 159.76721191406 486.85000610352 78624.121276855 33273106.079514
8240	2021857 6832 15692 19262 224.75 274.75 201 237.01409912109 486.85000610352 89455.557922363 40858997.499967
vector 8366  IntersectionExampleScenario.node[84].veinsmobility  posx  ETV
vector 8367  IntersectionExampleScenario.node[84].veinsmobility  posy  ETV
vector 8373  IntersectionExampleScenario.node[85].veinsmobility  posx  ETV
vector 8374  IntersectionExampleScenario.node[85].veinsmobility  posy  ETV
vector 8368  IntersectionExampleScenario.node[84].veinsmobility  speed  ETV
vector 8369  IntersectionExampleScenario.node[84].veinsmobility  acceleration  ETV
vector 8370  IntersectionExampleScenario.node[84].veinsmobility  co2emission  ETV
vector 8375  IntersectionExampleScenario.node[85].veinsmobility  speed  ETV
vector 8376  IntersectionExampleScenario.node[85].veinsmobility  acceleration  ETV
vector 8377  IntersectionExampleScenario.node[85].veinsmobility  co2emission  ETV
8300	2029481 5468 16488 19724 239 280.75 168 0.973 10.916047529558 488.44644404869 2506.0052701786
8299	2034949 5278 16488 19724 239 280.75 168 -3.3664150238037 2.5 34.267293930054 255.51590077717
8298	2040227 5451 16465 19724 238.75 280.75 169 5.6500000953674 14.644814491272 2187.1060481071 29313.827706536
8297	2045678 5733 16442 19724 238.5 280.75 170 184.17810058594 483.14999389648 67661.029968262 28737300.022951
8296	2051411 5777 16442 19724 238.5 280.75 170 486.85000610352 734.12844848633 91566.667999268 50314460.759956
8307	2057188 4978 17022 19871 244.75 282.5 152 0.973 12.553400930962 536.20355939384 3314.4401906658
8306	2062166 4678 17022 19871 244.75 282.5 152 -3.5787544250488 2.5 42.754949569702 322.78619049286
8305	2066844 4862 16997 19871 244.5 282.5 153 5.6500000953674 16.89999961853 2180.3244905472 32832.526568283
8304	2071706 5210 16972 19871 244.25 282.5 154 486.85000610352 785.82187652588 88213.95905304 52216542.603976
8303	2076916 5228 16972 19871 244.25 282.5 154 237.85675048828 483.14999389648 66789.027770996 29826813.558762
vector 8380  IntersectionExampleScenario.node[86].veinsmobility  posx  ETV
vector 8381  IntersectionExampleScenario.node[86].veinsmobility  posy  ETV
vector 8382  IntersectionExampleScenario.node[86].veinsmobility  speed  ETV
vector 8383  IntersectionExampleScenario.node[86].veinsmobility  acceleration  ETV
vector 8384  IntersectionExampleScenario.node[86].veinsmobility  co2emission  ETV
8258	2082540 6347 16055 19980 232.75 283.75 205 0.973 12.099024792222 601.58026243304 3105.2751188316
8257	2088887 5916 16055 19980 232.75 283.75 205 -9.0083045959473 4 41.396924972534 522.8323945564
8256	2094803 6145 16044 19980 232.5 283.75 206 0 16.27499961853 2212.4963891506 32514.284810363
8255	2100948 7040 16033 19980 232.25 283.75 207 483.14999389648 483.14999389648 100012.04873657 48320820.73665
8254	2107988 7002 16033 19980 232.25 283.75 207 184.17810058594 733.41706848145 94002.83782959 46720421.536173
8293	2114990 5867 16421 20088 238.25 285 188 0.973 12.099024792222 569.61520487165 3176.5991174279
8292	2120857 5976 16421 20088 238.25 285 188 -3.832023859024 2.5 41.057416915894 383.86747505289
8291	2126833 6180 16400 20088 238 285 189 0 16.27499961853 2200.9966448992 31011.724617449
8290	2133013 6447 16379 20088 237.75 285 190 483.14999389648 731.49557495117 99760.182174683 53361803.274542
8289	2139460 6422 16379 20088 237.75 285 190 184.17810058594 486.90966796875 77622.420440674 33549980.978655
vector 8387  IntersectionExampleScenario.node[87].veinsmobility  posx  ETV
vector 8388  IntersectionExampleScenario.node[87].veinsmobility  posy  ETV
8279	2146034 6421 16139 20109 234.25 285.25 205 0.973 11.648172402475 577.52129341503 2925.1787609671
8278	2152455 6260 16139 20109 234.25 285.25 205 -7.7750473022461 4 38.511121749878 464.41906906241
8277	2158715 6418 16122 20109 234 285.25 206 0 15.691223144531 2218.861125946 31131.959948122
8276	2165133 7038 16105 20109 233.75 285.25 207 486.85000610352 486.85000610352 100777.95126343 49063746.187699
8275	2172171 7016 16105 20109 233.75 285.25 207 235.17388916016 785.82187652588 106585.94010162 59072573.890744
vector 8389  IntersectionExampleScenario.node[87].veinsmobility  speed  ETV
vector 8390  IntersectionExampleScenario.node[87].veinsmobility  acceleration  ETV
vector 8391  IntersectionExampleScenario.node[87].veinsmobility  co2emission  ETV
8286	2179431 6095 16400 20155 238 285.75 192 0.973 11.450879080643 545.48679401856 2763.7820831295
8285	2185526 6054 16400 20155 238 285.75 192 -4.1574325561523 2.5000019073486 37.15309715271 374.86810746945
8284	2191580 6342 16379 20155 237.75 285.75 193 0 15.375 2229.3695494644 30276.72045964
8283	2197922 6582 16360 20155 237.5 285.75 194 238.23303222656 486.85000610352 85984.371307373 39144174.895358
8282	2204504 6584 16360 20155 237.5 285.75 194 482.99664306641 793.78281402588 109613.1957016 63955672.283176
vector 8394  IntersectionExampleScenario.node[88].veinsmobility  posx  ETV
vector 8395  IntersectionExampleScenario.node[88].veinsmobility  posy  ETV
vector 8396  IntersectionExampleScenario.node[88].veinsmobility  speed  ETV
vector 8397  IntersectionExampleScenario.node[88].veinsmobility  acceleration  ETV
vector 8398  IntersectionExampleScenario.node[88].veinsmobility  co2emission  ETV
vector 8401  IntersectionExampleScenario.node[89].veinsmobility  posx  ETV
vector 8402  IntersectionExampleScenario.node[89].veinsmobility  posy  ETV
vector 8403  IntersectionExampleScenario.node[89].veinsmobility  speed  ETV
vector 8404  IntersectionExampleScenario.node[89].veinsmobility  acceleration  ETV
vector 8405  IntersectionExampleScenario.node[89].veinsmobility  co2emission  ETV
vector 8408  IntersectionExampleScenario.node[90].veinsmobility  posx  ETV
vector 8409  IntersectionExampleScenario.node[90].veinsmobility  posy  ETV
vector 8415  IntersectionExampleScenario.node[91].veinsmobility  posx  ETV
vector 8416  IntersectionExampleScenario.node[91].veinsmobility  posy  ETV
vector 8410  IntersectionExampleScenario.node[90].veinsmobility  speed  ETV
vector 8417  IntersectionExampleScenario.node[91].veinsmobility  speed  ETV
vector 8411  IntersectionExampleScenario.node[90].veinsmobility  acceleration  ETV
vector 8412  IntersectionExampleScenario.node[90].veinsmobility  co2emission  ETV
vector 8418  IntersectionExampleScenario.node[91].veinsmobility  acceleration  ETV
vector 8419  IntersectionExampleScenario.node[91].veinsmobility  co2emission  ETV
vector 8422  IntersectionExampleScenario.node[92].veinsmobility  posx  ETV
vector 8423  IntersectionExampleScenario.node[92].veinsmobility  posy  ETV
vector 8429  IntersectionExampleScenario.node[93].veinsmobility  posx  ETV
vector 8430  IntersectionExampleScenario.node[93].veinsmobility  posy  ETV
vector 8424  IntersectionExampleScenario.node[92].veinsmobility  speed  ETV
vector 8425  IntersectionExampleScenario.node[92].veinsmobility  acceleration  ETV
vector 8426  IntersectionExampleScenario.node[92].veinsmobility  co2emission  ETV
vector 8431  IntersectionExampleScenario.node[93].veinsmobility  speed  ETV
vector 8432  IntersectionExampleScenario.node[93].veinsmobility  acceleration  ETV
vector 8433  IntersectionExampleScenario.node[93].veinsmobility  co2emission  ETV
8314	2213464 5122 18449 21504 261.5 300 155 0.973 11.90022389248 510.22514283635 2893.6398547529
8313	2218586 4932 18449 21504 261.5 300 155 -3.4354820251465 2.5 39.869146347046 261.79132178909
8312	2223518 5002 18434 21504 261.25 300 156 5.6500000953674 16 2210.4496517181 32346.923482244
8311	2228520 5309 18419 21504 261 300 157 184.17810058594 486.85000610352 62491.284210205 26630657.234925
8310	2233829 5334 18419 21504 261 300 157 236.33868408203 486.85000610352 68191.404968262 30560537.426359
vector 8436  IntersectionExampleScenario.node[94].veinsmobility  posx  ETV
vector 8437  IntersectionExampleScenario.node[94].veinsmobility  posy  ETV
vector 8438  IntersectionExampleScenario.node[94].veinsmobility  speed  ETV
vector 8443  IntersectionExampleScenario.node[95].veinsmobility  posx  ETV
vector 8444  IntersectionExampleScenario.node[95].veinsmobility  posy  ETV
vector 8439  IntersectionExampleScenario.node[94].veinsmobility  acceleration  ETV
vector 8440  IntersectionExampleScenario.node[94].veinsmobility  co2emission  ETV
vector 8445  IntersectionExampleScenario.node[95].veinsmobility  speed  ETV
vector 8450  IntersectionExampleScenario.node[96].veinsmobility  posx  ETV
vector 8451  IntersectionExampleScenario.node[96].veinsmobility  posy  ETV
vector 8446  IntersectionExampleScenario.node[95].veinsmobility  acceleration  ETV
vector 8447  IntersectionExampleScenario.node[95].veinsmobility  co2emission  ETV
vector 8452  IntersectionExampleScenario.node[96].veinsmobility  speed  ETV
vector 8457  IntersectionExampleScenario.node[97].veinsmobility  posx  ETV
vector 8458  IntersectionExampleScenario.node[97].veinsmobility  posy  ETV
vector 8453  IntersectionExampleScenario.node[96].veinsmobility  acceleration  ETV
vector 8454  IntersectionExampleScenario.node[96].veinsmobility  co2emission  ETV
vector 8459  IntersectionExampleScenario.node[97].veinsmobility  speed  ETV
vector 8460  IntersectionExampleScenario.node[97].veinsmobility  acceleration  ETV
[...]
vector 11538  IntersectionExampleScenario.node[537].veinsmobility  posy  ETV
vector 11532  IntersectionExampleScenario.node[536].veinsmobility  speed  ETV
11457	16289950 5633 130772 133505 1731.75 1770.5 156 0.97223939240464 11.648172402475 492.7854548545 2710.4466477677
11456	16295583 5347 130772 133505 1731.75 1770.5 156 -3.7350769042969 2.5 38.680875778198 248.03021181035
11455	16300930 5520 130755 133505 1731.5 1770.5 157 5.6500000953674 15.64999961853 2204.5658836365 31891.929881865
11454	16306450 5825 130738 133505 1731.25 1770.5 158 184.17810058594 487.06823730469 62857.177154541 26773648.95016
11453	16312275 5838 130738 133505 1731.25 1770.5 158 237.60894775391 486.85000610352 68608.713623047 30734918.189449
vector 11533  IntersectionExampleScenario.node[536].veinsmobility  acceleration  ETV
vector 11534  IntersectionExampleScenario.node[536].veinsmobility  co2emission  ETV
vector 11539  IntersectionExampleScenario.node[537].veinsmobility  speed  ETV
vector 11540  IntersectionExampleScenario.node[537].veinsmobility  acceleration  ETV
vector 11541  IntersectionExampleScenario.node[537].veinsmobility  co2emission  ETV
vector 11544  IntersectionExampleScenario.node[538].veinsmobility  posx  ETV
vector 11545  IntersectionExampleScenario.node[538].veinsmobility  posy  ETV
vector 11546  IntersectionExampleScenario.node[538].veinsmobility  speed  ETV
vector 11547  IntersectionExampleScenario.node[538].veinsmobility  acceleration  ETV
vector 11548  IntersectionExampleScenario.node[538].veinsmobility  co2emission  ETV
vector 11551  IntersectionExampleScenario.node[539].veinsmobility  posx  ETV
vector 11552  IntersectionExampleScenario.node[539].veinsmobility  posy  ETV
vector 11558  IntersectionExampleScenario.node[540].veinsmobility  posx  ETV
vector 11559  IntersectionExampleScenario.node[540].veinsmobility  posy  ETV
vector 11565  IntersectionExampleScenario.node[541].veinsmobility  posx  ETV
vector 11566  IntersectionExampleScenario.node[541].veinsmobility  posy  ETV
vector 11553  IntersectionExampleScenario.node[539].veinsmobility  speed  ETV
vector 11560  IntersectionExampleScenario.node[540].veinsmobility  speed  ETV
vector 11554  IntersectionExampleScenario.node[539].veinsmobility  acceleration  ETV
vector 11555  IntersectionExampleScenario.node[539].veinsmobility  co2emission  ETV
vector 11561  IntersectionExampleScenario.node[540].veinsmobility  acceleration  ETV
vector 11562  IntersectionExampleScenario.node[540].veinsmobility  co2emission  ETV
vector 11567  IntersectionExampleScenario.node[541].veinsmobility  speed  ETV
vector 11568  IntersectionExampleScenario.node[541].veinsmobility  acceleration  ETV
vector 11569  IntersectionExampleScenario.node[541].veinsmobility  co2emission  ETV
vector 11572  IntersectionExampleScenario.node[542].veinsmobility  posx  ETV
vector 11573  IntersectionExampleScenario.node[542].veinsmobility  posy  ETV
vector 11574  IntersectionExampleScenario.node[542].veinsmobility  speed  ETV
11492	16320393 5670 131192 133976 1736.75 1775.75 157 0.973 11.648172402475 489.93848290835 2630.9394071346
11491	16326063 5237 131192 133976 1736.75 1775.75 157 -3.2447280883789 2.5 38.341367721558 231.96890981277
11490	16331300 5564 131165 133976 1736.5 1775.75 158 5.6500000953674 15.64999961853 2204.4889039993 31683.154117764
11489	16336864 5871 131138 133976 1736.25 1775.75 159 237.70812988281 486.85000610352 69056.387145996 30939670.996897
11488	16342735 5876 131138 133976 1736.25 1775.75 159 483.14999389648 785.82187652588 90941.229881287 53788234.538224
vector 11575  IntersectionExampleScenario.node[542].veinsmobility  acceleration  ETV
vector 11576  IntersectionExampleScenario.node[542].veinsmobility  co2emission  ETV
vector 11579  IntersectionExampleScenario.node[543].veinsmobility  posx  ETV
vector 11580  IntersectionExampleScenario.node[543].veinsmobility  posy  ETV
vector 11581  IntersectionExampleScenario.node[543].veinsmobility  speed  ETV
vector 11582  IntersectionExampleScenario.node[543].veinsmobility  acceleration  ETV
vector 11583  IntersectionExampleScenario.node[543].veinsmobility  co2emission  ETV
vector 11586  IntersectionExampleScenario.node[544].veinsmobility  posx  ETV
vector 11587  IntersectionExampleScenario.node[544].veinsmobility  posy  ETV
vector 11593  IntersectionExampleScenario.node[545].veinsmobility  posx  ETV
vector 11594  IntersectionExampleScenario.node[545].veinsmobility  posy  ETV
vector 11588  IntersectionExampleScenario.node[544].veinsmobility  speed  ETV
vector 11589  IntersectionExampleScenario.node[544].veinsmobility  acceleration  ETV
vector 11590  IntersectionExampleScenario.node[544].veinsmobility  co2emission  ETV
vector 11595  IntersectionExampleScenario.node[545].veinsmobility  speed  ETV
vector 11596  IntersectionExampleScenario.node[545].veinsmobility  acceleration  ETV
vector 11597  IntersectionExampleScenario.node[545].veinsmobility  co2emission  ETV
vector 11600  IntersectionExampleScenario.node[546].veinsmobility  posx  ETV
vector 11601  IntersectionExampleScenario.node[546].veinsmobility  posy  ETV
vector 11602  IntersectionExampleScenario.node[546].veinsmobility  speed  ETV
vector 11603  IntersectionExampleScenario.node[546].veinsmobility  acceleration  ETV
vector 11604  IntersectionExampleScenario.node[546].veinsmobility  co2emission  ETV
11464	16350406 7210 130914 135260 1733.75 1786.75 213 0.973 11.90022389248 612.12907859972 3171.1696371112
11463	16357616 6858 130914 135260 1733.75 1786.75 213 -7.6225299835205 4 41.057416915894 501.88834403153
11462	16364474 6985 130893 135260 1733.5 1786.75 214 0 16 2278.4132759571 33320.391908856
11461	16371459 7915 130874 135260 1733.25 1786.75 215 166.078125 486.85000610352 88411.796875 38638345.529077
11460	16379374 7955 130874 135260 1733.25 1786.75 215 236.18798828125 486.85000610352 96564.444244385 44417485.061943
11471	16387329 7362 130935 135375 1734 1787.75 216 0.973 11.200708441096 571.74138712589 2718.6038181606
11470	16394691 6677 130935 135375 1734 1787.75 216 -9.2001304626465 4 36.304327011108 497.72637162226
11469	16401368 7137 130914 135375 1733.75 1787.75 217 0 15.02499961853 2210.5794429779 30523.4553789
11468	16408505 8048 130893 135375 1733.5 1787.75 218 236.52941894531 785.82187652588 112220.71329498 62037177.730985
11467	16416553 8067 130893 135375 1733.5 1787.75 218 483.14999389648 483.14999389648 105326.69866943 50888593.819274
11478	16424620 7351 131044 135509 1735.25 1789 216 0.973 11.681288373024 645.68505806514 3294.8442155452
11477	16431971 6907 131044 135509 1735.25 1789 216 -9.4099140167236 2.5 40.184278488159 576.14071269509
11476	16438878 7382 131021 135509 1735 1789 217 -0.22275757789612 16.006381988525 2302.5788891912 33178.701639946
11475	16446260 8027 130998 135509 1734.75 1789 218 235.95587158203 807.09531402588 113936.25219727 64210525.127974
11474	16454287 8065 130998 135509 1734.75 1789 218 483.14999389648 483.14999389648 105326.69866943 50888593.819274
vector 11607  IntersectionExampleScenario.node[547].veinsmobility  posx  ETV
vector 11608  IntersectionExampleScenario.node[547].veinsmobility  posy  ETV
vector 11609  IntersectionExampleScenario.node[547].veinsmobility  speed  ETV
vector 11610  IntersectionExampleScenario.node[547].veinsmobility  acceleration  ETV
vector 11611  IntersectionExampleScenario.node[547].veinsmobility  co2emission  ETV
11485	16462758 7687 131165 135746 1736.5 1791.25 220 0.973 11.810082123732 605.02460336412 3046.2825173995
11484	16470445 7668 131165 135746 1736.5 1791.25 220 -4.5 2.5000009536743 39.699392318726 416.56689371103
11483	16478113 7836 131138 135746 1736.25 1791.25 221 0 15.875 2303.956358619 32039.881181247
11482	16485949 8189 131113 135746 1736 1791.25 222 486.85000610352 817.73203277588 126048.39633942 74029152.012331
11481	16494138 8201 131113 135746 1736 1791.25 222 238.97412109375 483.14999389648 99371.124389648 45478297.109682
vector 11614  IntersectionExampleScenario.node[548].veinsmobility  posx  ETV
vector 11615  IntersectionExampleScenario.node[548].veinsmobility  posy  ETV
vector 11616  IntersectionExampleScenario.node[548].veinsmobility  speed  ETV
vector 11617  IntersectionExampleScenario.node[548].veinsmobility  acceleration  ETV
vector 11618  IntersectionExampleScenario.node[548].veinsmobility  co2emission  ETV
vector 11621  IntersectionExampleScenario.node[549].veinsmobility  posx  ETV
vector 11622  IntersectionExampleScenario.node[549].veinsmobility  posy  ETV
vector 11623  IntersectionExampleScenario.node[549].veinsmobility  speed  ETV
vector 11624  IntersectionExampleScenario.node[549].veinsmobility  acceleration  ETV
vector 11625  IntersectionExampleScenario.node[549].veinsmobility  co2emission  ETV
vector 11628  IntersectionExampleScenario.node[550].veinsmobility  posx  ETV
vector 11629  IntersectionExampleScenario.node[550].veinsmobility  posy  ETV
vector 11630  IntersectionExampleScenario.node[550].veinsmobility  speed  ETV
vector 11631  IntersectionExampleScenario.node[550].veinsmobility  acceleration  ETV
vector 11632  IntersectionExampleScenario.node[550].veinsmobility  co2emission  ETV
11499	16503557 6262 132483 136636 1754 1800 185 0.97223939240464 11.810082123732 556.61791229185 3175.1916704383
11498	16509819 5932 132483 136636 1754 1800 185 -8.776216506958 4 38.680967330933 549.39170633305
11497	16515751 6040 132468 136636 1753.75 1800 186 0 15.875 1922.1032671928 26856.753336165
11496	16521791 6848 132453 136636 1753.5 1800 187 300.36431884766 483.14999389648 85802.353271484 39808346.188655
11495	16528639 6892 132453 136636 1753.5 1800 187 184.17810058594 483.36395263672 76036.097381592 32747612.480877
11506	16535531 5479 132887 136636 1762 1800 153 0.973 11.36141391502 488.96158739225 2639.2224108751
11505	16541010 5155 132887 136636 1762 1800 153 -3.3469123840332 2.5 37.32285118103 321.05585418541
11504	16546165 5420 132874 136636 1761.75 1800 154 4.5092883110046 15.25 1992.8811273575 27428.162667327
11503	16551585 5729 132861 136636 1761.5 1800 155 486.85000610352 685.86099243164 80946.857086182 42802566.505234
11502	16557314 5722 132861 136636 1761.5 1800 155 486.85000610352 785.82187652588 89527.338005066 53391870.379225
11513	16563036 5263 132958 136636 1763.25 1800 148 0.973 11.36141391502 471.26510337059 2567.5362501829
11512	16568299 4976 132958 136636 1763.25 1800 148 -4.5 2.5 38.511144638062 280.25876161451
11511	16573275 5193 132941 136636 1763 1800 149 5.6500000953674 15.320074081421 1938.0829472542 26720.77568289
11510	16578468 5546 132926 136636 1762.75 1800 150 486.85000610352 649.99389648438 76697.711044312 39521512.518329
11509	16584014 5541 132926 136636 1762.75 1800 150 486.85000610352 807.09531402588 88903.887649536 54571511.178424
11520	16589555 5264 132975 136636 1763.5 1800 147 0.973 12.099024792222 475.75861371769 2717.3302541844
11519	16594819 5046 132975 136636 1763.5 1800 147 -3.3015441894531 2.5 40.038900375366 214.29066054663
11518	16599865 5237 132958 136636 1763.25 1800 148 5.6500000953674 16.27499961853 2160.3052186966 32261.824774525
11517	16605102 5491 132941 136636 1763 1800 149 251.07275390625 785.82187652588 78798.155891418 45433315.393986
11516	16610593 5511 132941 136636 1763 1800 149 483.14999389648 483.14999389648 71989.349090576 34781653.573724
11527	16616104 4625 133047 136636 1764.5 1800 143 0.973 11.648172402475 342.51146496942 1603.0656837338
11526	16620729 4036 133047 136636 1764.5 1800 143 -16.873634338379 4 -1.1000003814697 625.9743227422
11525	16624765 4484 133028 136636 1764.25 1800 144 0 15.64999961853 1170.7489814758 16717.298531695
11524	16629249 5340 133009 136636 1764 1800 145 184.17810058594 476.18688964844 55766.207885742 22941153.442101
11523	16634589 5362 133009 136636 1764 1800 145 486.85000610352 488.3235168457 70596.647491455 34371635.404215
11534	16639951 4177 133528 136636 1770.75 1800 118 0.973 11.743209257527 403.92402454933 2577.6083795648
11533	16644128 4151 133528 136636 1770.75 1800 118 -3.137996673584 2.5 38.852945327759 209.96062959162
11532	16648279 4176 133505 136636 1770.5 1800 119 5.6500000953674 15.782143592834 1658.4013900757 23707.110317583
11531	16652455 4440 133484 136636 1770.25 1800 120 486.85000610352 486.85000610352 58422.000732422 28442751.413159
11530	16656895 4433 133484 136636 1770.25 1800 120 376.43896484375 785.82187652588 70558.507255554 43310028.368275
11541	16661328 4170 133551 136636 1771 1800 117 0.973 11.990504229548 416.14249452401 2663.7597209974
11540	16665498 4090 133551 136636 1771 1800 117 -3.0795860290527 2.5 39.70897102356 218.38296268553
11539	16669588 4114 133528 136636 1770.75 1800 118 5.6500000953674 16.125 1677.2217512131 24500.76476496
11538	16673702 4402 133505 136636 1770.5 1800 119 483.14999389648 483.14999389648 57494.849273682 27778636.075658
11537	16678104 4376 133505 136636 1770.5 1800 119 184.17810058594 598.02868652344 45665.229034424 19383509.473141
11548	16682480 3675 133618 136636 1771.75 1800 114 0.973 11.648172402475 285.14997645209 1476.0993749689
11547	16686155 4181 133618 136636 1771.75 1800 114 -2.2896423339844 2.5 -1.6767387390137 207.45637251431
11546	16690336 4230 133597 136636 1771.5 1800 115 1.5489621162415 15.64999961853 1132.5550892353 14216.64976827
11545	16694566 4269 133574 136636 1771.25 1800 116 184.17810058594 465.68463134766 41111.120941162 15618056.762924
11544	16698835 4292 133574 136636 1771.25 1800 116 486.85000610352 486.85000610352 56474.600708008 27494659.699387
11555	16703127 3687 133829 136636 1774.25 1800 104 0.973 11.648172402475 358.11667379523 2099.4853165543
11554	16706814 3596 133829 136636 1774.25 1800 104 -3.6097621917725 2.5 28.39999961853 266.06516716213
11553	16710410 3606 133804 136636 1774 1800 105 5.6500000953674 15.825307846069 1360.5158715248 18857.404606451
11552	16714016 3920 133781 136636 1773.75 1800 106 486.85000610352 518.72454833984 51844.981811523 25361868.049199
11551	16717936 3914 133781 136636 1773.75 1800 106 486.85000610352 795.46562957764 66078.112060547 42383383.687166
11562	16721850 3699 133829 136636 1774.25 1800 104 0.973 11.648172402475 358.82608789456 2069.2669969003
11561	16725549 3197 133829 136636 1774.25 1800 104 -4.3751678466797 2.5 28.39999961853 265.00967374756
11560	16728746 3611 133804 136636 1774 1800 105 5.6500000953674 15.64999961853 1363.8450012207 18946.513627253
11559	16732357 3917 133781 136636 1773.75 1800 106 452.01431274414 483.14999389648 50985.558807373 24527856.258968
11558	16736274 3886 133781 136636 1773.75 1800 106 172.9296875 483.21011352539 36620.742492676 13852597.528748
11569	16740160 3521 133854 136636 1774.5 1800 103 0.97223939240464 11.648172402475 282.10301065705 1498.0769393373
11568	16743681 3746 133854 136636 1774.5 1800 103 -4.5 2.5 3.3302307128906 240.63217582318
11567	16747427 3829 133829 136636 1774.25 1800 104 3.8720450401306 15.64999961853 1109.175699234 14119.132076511
11566	16751256 3856 133804 136636 1774 1800 105 169.95465087891 445.47863769531 34441.475830078 12186301.495911
11565	16755112 3883 133804 136636 1774 1800 105 486.85000610352 486.85000610352 51119.250640869 24887407.486514
11576	16758995 3360 134001 136636 1776 1800 97 0.973 11.200708441096 266.96713558818 1335.2415823665
11575	16762355 3301 134001 136636 1776 1800 97 -25.011680603027 2.5 -22.60000038147 823.7629808987
11574	16765656 3541 133976 136636 1775.75 1800 98 0 15.02499961853 1242.1154842377 17105.370045286
11573	16769197 3662 133951 136636 1775.5 1800 99 486.85000610352 486.85000610352 48198.150604248 23465269.915856
11572	16772859 3657 133951 136636 1775.5 1800 99 498.39999389648 809.87969207764 64645.934570312 43208990.188219
11583	16776516 3258 134080 136636 1776.75 1800 94 0.973 12.099024792222 297.35977886912 1674.7275677987
11582	16779774 3253 134080 136636 1776.75 1800 94 -6.9978852272034 4 -1.1000003814697 386.40453373981
11581	16783027 3393 134053 136636 1776.5 1800 95 0 16.27499961853 1172.8112164736 16750.333170792
11580	16786420 3546 134026 136636 1776.25 1800 96 493.54061889648 785.82187652588 60324.532539368 38846858.139412
11579	16789966 3552 134026 136636 1776.25 1800 96 483.14999389648 483.14999389648 46382.399414062 22409655.993809
11590	16793518 2517 134572 136636 1781.25 1800 76 0.973 11.648172402475 239.7871150787 1454.9918957476
11589	16796035 2691 134572 136636 1781.25 1800 76 -3.1680297851562 2.5 9.2207660675049 186.08379425316
11588	16798726 2833 134541 136636 1781 1800 77 5.6500000953674 15.748682975769 933.41987371445 12351.736940244
11587	16801559 2860 134512 136636 1780.75 1800 78 184.17810058594 415.08758544922 23736.395782471 7680937.2875963
11586	16804419 2885 134512 136636 1780.75 1800 78 486.85000610352 486.85000610352 37974.300476074 18487788.418553
11597	16807304 2592 134603 136636 1781.5 1800 75 0.973 11.914341686093 239.91359269606 1432.5604855338
11596	16809896 2670 134603 136636 1781.5 1800 75 -4.5 2.5 10.131349563599 209.79578955267
11595	16812566 2803 134572 136636 1781.25 1800 76 5.6500000953674 16.019559860229 962.32372283936 12909.738312367
11594	16815369 2831 134541 136636 1781 1800 77 159.76721191406 397.36651611328 21256.266387939 6329883.3997192
11593	16818200 2847 134541 136636 1781 1800 77 486.85000610352 486.85000610352 37487.450469971 18250765.49011
11604	16821047 2273 135010 136636 1784.75 1800 62 0.973 12.099024792222 241.54818059652 1540.4791415796
11603	16823320 2251 135010 136636 1784.75 1800 62 -0.40308380126953 2.5 40.887662887573 106.62136796487
11602	16825571 2314 134977 136636 1784.5 1800 63 5.6500000953674 16.27499961853 912.7704076767 13727.323591551
11601	16827885 2368 134944 136636 1784.25 1800 64 483.14999389648 483.14999389648 30921.599609375 14939770.662539
11600	16830253 2351 134944 136636 1784.25 1800 64 184.17810058594 407.10296630859 18220.998626709 5497373.3240215
11611	16832604 1475 135638 136636 1790.25 1800 40 2.0947737808434 11.648172402475 186.93550690346 1304.5315318905
11610	16834079 1378 135638 136636 1790.25 1800 40 -0.03271484375 2.5 39.869268417358 100.0024367848
11609	16835457 1502 135611 136636 1790 1800 41 5.6500000953674 15.64999961853 555.96287918091 7944.2112961424
11608	16836959 1553 135584 136636 1789.75 1800 42 483.14999389648 483.14999389648 20292.299743652 9804224.4972913
11607	16838512 1536 135584 136636 1789.75 1800 42 184.17810058594 317.93811035156 10155.744140625 2530731.0221957
11618	16840048 1023 135965 136636 1793.25 1800 28 0.973 11.648172402475 154.79814713868 1225.8489602072
11617	16841071 887 135965 136636 1793.25 1800 28 -0.41465759277344 2.5 38.393899917603 100.39260754978
11616	16841958 1061 135937 136636 1793 1800 29 5.6500000953674 15.64999961853 365.07864952087 4909.8694452706
11615	16843019 1084 135908 136636 1792.75 1800 30 184.17810058594 270.3271484375 6594.3070068359 1471851.2682936
11614	16844103 1109 135908 136636 1792.75 1800 30 486.85000610352 486.85000610352 14605.500183105 7110687.8532898
11625	16845212 403 136395 136636 1797.5 1800 11 5.2162187258585 9.442030466751 80.452460202964 608.047069496
11624	16845615 286 136395 136636 1797.5 1800 11 2.4999980926514 2.5 27.499998092651 68.74999046326
11623	16845901 439 136368 136636 1797.25 1800 12 5.6500000953674 12.52499961853 109.04999732971 1046.8511919308
11622	16846340 471 136341 136636 1797 1800 13 179.81719970703 203.08905029297 2460.0670776367 466277.37961033
11621	16846811 479 136341 136636 1797 1800 13 486.85000610352 486.85000610352 6329.0500793457 3081298.0697589
11632	16847290 110 136585 136636 1799.5 1800 3 5.2162187258585 6.0461819274774 16.892854010144 95.467258699338
11631	16847400 74 136585 136636 1799.5 1800 3 2.5 2.5 7.5 18.75
11630	16847474 148 136560 136636 1799.25 1800 4 5.6500000953674 7.5250000953674 26.35000038147 175.53375502586
11629	16847622 183 136535 136636 1799 1800 5 781.35000610352 785.82187652588 3920.4781417847 3074044.631164
11628	16847805 183 136535 136636 1799 1800 5 483.14999389648 483.14999389648 2415.7499694824 1167169.5830109
7774	16847988 601 0 136635 0 1800 31 0 22 438 6716
7775	16848589 611 0 136635 0 1800 31 0 147 2254 222428
