version 2
run nodebug-14-20200605-20:16:09-14344
attr configname nodebug
attr datetime 20200605-20:16:09
attr experiment nodebug
attr inifile omnetpp.ini
attr iterationvars ""
attr iterationvars2 $repetition=14
attr measurement ""
attr network "\"org.car2x.veins.modules.application.ExtTraCIScenarioManagerLaunchd.IntersectionExampleScenario\""
attr processid 14344
attr repetition 14
attr replication #14
attr resultdir results
attr runnumber 14
attr seedset 14
param **.coreDebug false
param **.debug false
param *.**.nic.mac1609_4.bitrate 18Mbps
param *.**.nic.mac1609_4.txPower 20mW
param *.**.nic.mac1609_4.useServiceChannel false
param *.**.nic.phy80211p.analogueModels "xmldoc(\"config.xml\")"
param *.**.nic.phy80211p.decider "xmldoc(\"config.xml\")"
param *.**.nic.phy80211p.sensitivity -89dBm
param *.**.nic.phy80211p.thermalNoise -110dBm
param *.**.nic.phy80211p.usePropagationDelay true
param *.**.nic.phy80211p.useThermalNoise true
param *.annotations.draw false
param *.connectionManager.alpha 2.0
param *.connectionManager.carrierFrequency "5.890e9 Hz"
param *.connectionManager.pMax 20mW
param *.connectionManager.sat -89dBm
param *.connectionManager.sendDirect true
param *.manager.autoShutdown true
param *.manager.host "\"localhost\""
param *.manager.launchConfig "xmldoc(\"paramics.launchd.xml\")"
param *.manager.margin 25
param *.manager.moduleDisplayString "\"\""
param *.manager.moduleName "\"node\""
param *.manager.moduleType "\"org.car2x.veins.nodes.Car\""
param *.manager.port 9999
param *.manager.updateInterval 250ms
param *.node[*0].veinsmobility.accidentCount 0
param *.node[*0].veinsmobility.accidentDuration 30s
param *.node[*0].veinsmobility.accidentStart 75s
param *.node[*].appl.LiderSelectZoneRadio 55.0
param *.node[*].appl.ShareDataZoneRadio 110.0
param *.node[*].appl.TiempoSemaforo 30.0
param *.node[*].appl.beaconInterval 1s
param *.node[*].appl.beaconPriority 3
param *.node[*].appl.dataOnSch false
param *.node[*].appl.dataPriority 2
param *.node[*].appl.debug false
param *.node[*].appl.headerLength "256 bit"
param *.node[*].appl.maxOffset 0.005s
param *.node[*].appl.sendBeacons false
param *.node[*].appl.sendData true
param *.node[*].applType "\"Dummy\""
param *.node[*].mobilityType "\"TraCIMobility\""
param *.node[*].mobilityType.debug true
param *.node[*].veinsmobility.x 0
param *.node[*].veinsmobility.y 0
param *.node[*].veinsmobility.z 1.895
param *.node[*].veinsmobilityType "\"org.car2x.veins.modules.mobility.traci.TraCIMobility\""
param *.node[*].veinsmobilityType.debug true
param *.playgroundSizeX 8500m
param *.playgroundSizeY 8500m
param *.playgroundSizeZ 50m
param *.world.use2D false
param *.world.useTorus false

scalar IntersectionExampleScenario.node[0].appl 	VehicleRemoved 	0
scalar IntersectionExampleScenario.node[0].appl 	ArrivedAtDest 	1
scalar IntersectionExampleScenario.node[0].appl 	IntersectionEnterTime 	6.75
scalar IntersectionExampleScenario.node[0].appl 	IntersectionExitTime 	28.751005868602
scalar IntersectionExampleScenario.node[0].appl 	NumberOfCollisions 	0
scalar IntersectionExampleScenario.node[0].nic.phy80211p 	busyTime 	0
scalar IntersectionExampleScenario.node[0].nic.mac1609_4 	ReceivedUnicastPackets 	0
scalar IntersectionExampleScenario.node[0].nic.mac1609_4 	ReceivedBroadcasts 	0
scalar IntersectionExampleScenario.node[0].nic.mac1609_4 	SentPackets 	0
scalar IntersectionExampleScenario.node[0].nic.mac1609_4 	SNIRLostPackets 	0
scalar IntersectionExampleScenario.node[0].nic.mac1609_4 	RXTXLostPackets 	0
scalar IntersectionExampleScenario.node[0].nic.mac1609_4 	TotalLostPackets 	0
scalar IntersectionExampleScenario.node[0].nic.mac1609_4 	DroppedPacketsInMac 	0
scalar IntersectionExampleScenario.node[0].nic.mac1609_4 	TooLittleTime 	0
scalar IntersectionExampleScenario.node[0].nic.mac1609_4 	TimesIntoBackoff 	0
scalar IntersectionExampleScenario.node[0].nic.mac1609_4 	SlotsBackoff 	0
scalar IntersectionExampleScenario.node[0].nic.mac1609_4 	NumInternalContention 	0
scalar IntersectionExampleScenario.node[0].nic.mac1609_4 	totalBusyTime 	0
scalar IntersectionExampleScenario.node[0].veinsmobility 	startTime 	6.75
scalar IntersectionExampleScenario.node[0].veinsmobility 	totalTime 	37.25
scalar IntersectionExampleScenario.node[0].veinsmobility 	stopTime 	44.25
scalar IntersectionExampleScenario.node[0].veinsmobility 	minSpeed 	5.6500000953674
scalar IntersectionExampleScenario.node[0].veinsmobility 	maxSpeed 	16.89999961853
scalar IntersectionExampleScenario.node[0].veinsmobility 	totalDistance 	549.66357368091
scalar IntersectionExampleScenario.node[0].veinsmobility 	totalCO2Emission 	131.39387101402
scalar IntersectionExampleScenario.node[1].appl 	VehicleRemoved 	0
scalar IntersectionExampleScenario.node[1].appl 	ArrivedAtDest 	1
scalar IntersectionExampleScenario.node[1].appl 	IntersectionEnterTime 	9.25
scalar IntersectionExampleScenario.node[1].appl 	IntersectionExitTime 	34.539785553527
scalar IntersectionExampleScenario.node[1].appl 	NumberOfCollisions 	0
scalar IntersectionExampleScenario.node[1].nic.phy80211p 	busyTime 	0
scalar IntersectionExampleScenario.node[1].nic.mac1609_4 	ReceivedUnicastPackets 	0
scalar IntersectionExampleScenario.node[1].nic.mac1609_4 	ReceivedBroadcasts 	0
scalar IntersectionExampleScenario.node[1].nic.mac1609_4 	SentPackets 	0
scalar IntersectionExampleScenario.node[1].nic.mac1609_4 	SNIRLostPackets 	0
scalar IntersectionExampleScenario.node[1].nic.mac1609_4 	RXTXLostPackets 	0
scalar IntersectionExampleScenario.node[1].nic.mac1609_4 	TotalLostPackets 	0
scalar IntersectionExampleScenario.node[1].nic.mac1609_4 	DroppedPacketsInMac 	0
scalar IntersectionExampleScenario.node[1].nic.mac1609_4 	TooLittleTime 	0
scalar IntersectionExampleScenario.node[1].nic.mac1609_4 	TimesIntoBackoff 	0
scalar IntersectionExampleScenario.node[1].nic.mac1609_4 	SlotsBackoff 	0
scalar IntersectionExampleScenario.node[1].nic.mac1609_4 	NumInternalContention 	0
scalar IntersectionExampleScenario.node[1].nic.mac1609_4 	totalBusyTime 	0
scalar IntersectionExampleScenario.node[1].veinsmobility 	startTime 	9.25
scalar IntersectionExampleScenario.node[1].veinsmobility 	totalTime 	42
scalar IntersectionExampleScenario.node[1].veinsmobility 	stopTime 	51.5
scalar IntersectionExampleScenario.node[1].veinsmobility 	minSpeed 	4.819354057312
scalar IntersectionExampleScenario.node[1].veinsmobility 	maxSpeed 	15.02499961853
scalar IntersectionExampleScenario.node[1].veinsmobility 	totalDistance 	554.55289459229
scalar IntersectionExampleScenario.node[1].veinsmobility 	totalCO2Emission 	126.93929532135
scalar IntersectionExampleScenario.node[5].appl 	VehicleRemoved 	0
scalar IntersectionExampleScenario.node[5].appl 	ArrivedAtDest 	1
scalar IntersectionExampleScenario.node[5].appl 	IntersectionEnterTime 	21.75
scalar IntersectionExampleScenario.node[5].appl 	IntersectionExitTime 	45.559363220789
scalar IntersectionExampleScenario.node[5].appl 	NumberOfCollisions 	0
scalar IntersectionExampleScenario.node[5].nic.phy80211p 	busyTime 	0
scalar IntersectionExampleScenario.node[5].nic.mac1609_4 	ReceivedUnicastPackets 	0
scalar IntersectionExampleScenario.node[5].nic.mac1609_4 	ReceivedBroadcasts 	0
scalar IntersectionExampleScenario.node[5].nic.mac1609_4 	SentPackets 	0
scalar IntersectionExampleScenario.node[5].nic.mac1609_4 	SNIRLostPackets 	0
scalar IntersectionExampleScenario.node[5].nic.mac1609_4 	RXTXLostPackets 	0
scalar IntersectionExampleScenario.node[5].nic.mac1609_4 	TotalLostPackets 	0
scalar IntersectionExampleScenario.node[5].nic.mac1609_4 	DroppedPacketsInMac 	0
scalar IntersectionExampleScenario.node[5].nic.mac1609_4 	TooLittleTime 	0
scalar IntersectionExampleScenario.node[5].nic.mac1609_4 	TimesIntoBackoff 	0
scalar IntersectionExampleScenario.node[5].nic.mac1609_4 	SlotsBackoff 	0
scalar IntersectionExampleScenario.node[5].nic.mac1609_4 	NumInternalContention 	0
scalar IntersectionExampleScenario.node[5].nic.mac1609_4 	totalBusyTime 	0
scalar IntersectionExampleScenario.node[5].veinsmobility 	startTime 	21.75
scalar IntersectionExampleScenario.node[5].veinsmobility 	totalTime 	40.75
scalar IntersectionExampleScenario.node[5].veinsmobility 	stopTime 	62.75
scalar IntersectionExampleScenario.node[5].veinsmobility 	minSpeed 	5.6500000953674
scalar IntersectionExampleScenario.node[5].veinsmobility 	maxSpeed 	15.25
scalar IntersectionExampleScenario.node[5].veinsmobility 	totalDistance 	545.00385895323
scalar IntersectionExampleScenario.node[5].veinsmobility 	totalCO2Emission 	124.51165240541
scalar IntersectionExampleScenario.node[6].appl 	VehicleRemoved 	0
scalar IntersectionExampleScenario.node[6].appl 	ArrivedAtDest 	1
scalar IntersectionExampleScenario.node[6].appl 	IntersectionEnterTime 	23.75
scalar IntersectionExampleScenario.node[6].appl 	IntersectionExitTime 	47.082125007699
scalar IntersectionExampleScenario.node[6].appl 	NumberOfCollisions 	0
scalar IntersectionExampleScenario.node[6].nic.phy80211p 	busyTime 	0
scalar IntersectionExampleScenario.node[6].nic.mac1609_4 	ReceivedUnicastPackets 	0
scalar IntersectionExampleScenario.node[6].nic.mac1609_4 	ReceivedBroadcasts 	0
scalar IntersectionExampleScenario.node[6].nic.mac1609_4 	SentPackets 	0
scalar IntersectionExampleScenario.node[6].nic.mac1609_4 	SNIRLostPackets 	0
scalar IntersectionExampleScenario.node[6].nic.mac1609_4 	RXTXLostPackets 	0
scalar IntersectionExampleScenario.node[6].nic.mac1609_4 	TotalLostPackets 	0
scalar IntersectionExampleScenario.node[6].nic.mac1609_4 	DroppedPacketsInMac 	0
scalar IntersectionExampleScenario.node[6].nic.mac1609_4 	TooLittleTime 	0
scalar IntersectionExampleScenario.node[6].nic.mac1609_4 	TimesIntoBackoff 	0
scalar IntersectionExampleScenario.node[6].nic.mac1609_4 	SlotsBackoff 	0
scalar IntersectionExampleScenario.node[6].nic.mac1609_4 	NumInternalContention 	0
scalar IntersectionExampleScenario.node[6].nic.mac1609_4 	totalBusyTime 	0
scalar IntersectionExampleScenario.node[6].veinsmobility 	startTime 	23.75
scalar IntersectionExampleScenario.node[6].veinsmobility 	totalTime 	39.75
scalar IntersectionExampleScenario.node[6].veinsmobility 	stopTime 	63.75
scalar IntersectionExampleScenario.node[6].veinsmobility 	minSpeed 	5.6500000953674
scalar IntersectionExampleScenario.node[6].veinsmobility 	maxSpeed 	15.02499961853
scalar IntersectionExampleScenario.node[6].veinsmobility 	totalDistance 	552.6280670166
scalar IntersectionExampleScenario.node[6].veinsmobility 	totalCO2Emission 	114.55270934197
scalar IntersectionExampleScenario.node[2].appl 	VehicleRemoved 	0
scalar IntersectionExampleScenario.node[2].appl 	ArrivedAtDest 	1
scalar IntersectionExampleScenario.node[2].appl 	IntersectionEnterTime 	12.25
scalar IntersectionExampleScenario.node[2].appl 	IntersectionExitTime 	50.54278182835
scalar IntersectionExampleScenario.node[2].appl 	NumberOfCollisions 	0
scalar IntersectionExampleScenario.node[2].nic.phy80211p 	busyTime 	0
scalar IntersectionExampleScenario.node[2].nic.mac1609_4 	ReceivedUnicastPackets 	0
scalar IntersectionExampleScenario.node[2].nic.mac1609_4 	ReceivedBroadcasts 	0
scalar IntersectionExampleScenario.node[2].nic.mac1609_4 	SentPackets 	0
scalar IntersectionExampleScenario.node[2].nic.mac1609_4 	SNIRLostPackets 	0
scalar IntersectionExampleScenario.node[2].nic.mac1609_4 	RXTXLostPackets 	0
scalar IntersectionExampleScenario.node[2].nic.mac1609_4 	TotalLostPackets 	0
scalar IntersectionExampleScenario.node[2].nic.mac1609_4 	DroppedPacketsInMac 	0
scalar IntersectionExampleScenario.node[2].nic.mac1609_4 	TooLittleTime 	0
scalar IntersectionExampleScenario.node[2].nic.mac1609_4 	TimesIntoBackoff 	0
scalar IntersectionExampleScenario.node[2].nic.mac1609_4 	SlotsBackoff 	0
scalar IntersectionExampleScenario.node[2].nic.mac1609_4 	NumInternalContention 	0
scalar IntersectionExampleScenario.node[2].nic.mac1609_4 	totalBusyTime 	0
scalar IntersectionExampleScenario.node[2].veinsmobility 	startTime 	12.25
scalar IntersectionExampleScenario.node[2].veinsmobility 	totalTime 	55
scalar IntersectionExampleScenario.node[2].veinsmobility 	stopTime 	67.5
scalar IntersectionExampleScenario.node[2].veinsmobility 	minSpeed 	0
scalar IntersectionExampleScenario.node[2].veinsmobility 	maxSpeed 	15.64999961853
scalar IntersectionExampleScenario.node[2].veinsmobility 	totalDistance 	544.42742062957
scalar IntersectionExampleScenario.node[2].veinsmobility 	totalCO2Emission 	147.53680988064
scalar IntersectionExampleScenario.node[3].appl 	VehicleRemoved 	0
scalar IntersectionExampleScenario.node[3].appl 	ArrivedAtDest 	1
scalar IntersectionExampleScenario.node[3].appl 	IntersectionEnterTime 	16.75
scalar IntersectionExampleScenario.node[3].appl 	IntersectionExitTime 	52.276253033197
scalar IntersectionExampleScenario.node[3].appl 	NumberOfCollisions 	0
scalar IntersectionExampleScenario.node[3].nic.phy80211p 	busyTime 	0
scalar IntersectionExampleScenario.node[3].nic.mac1609_4 	ReceivedUnicastPackets 	0
scalar IntersectionExampleScenario.node[3].nic.mac1609_4 	ReceivedBroadcasts 	0
scalar IntersectionExampleScenario.node[3].nic.mac1609_4 	SentPackets 	0
scalar IntersectionExampleScenario.node[3].nic.mac1609_4 	SNIRLostPackets 	0
scalar IntersectionExampleScenario.node[3].nic.mac1609_4 	RXTXLostPackets 	0
scalar IntersectionExampleScenario.node[3].nic.mac1609_4 	TotalLostPackets 	0
scalar IntersectionExampleScenario.node[3].nic.mac1609_4 	DroppedPacketsInMac 	0
scalar IntersectionExampleScenario.node[3].nic.mac1609_4 	TooLittleTime 	0
scalar IntersectionExampleScenario.node[3].nic.mac1609_4 	TimesIntoBackoff 	0
scalar IntersectionExampleScenario.node[3].nic.mac1609_4 	SlotsBackoff 	0
scalar IntersectionExampleScenario.node[3].nic.mac1609_4 	NumInternalContention 	0
scalar IntersectionExampleScenario.node[3].nic.mac1609_4 	totalBusyTime 	0
scalar IntersectionExampleScenario.node[3].veinsmobility 	startTime 	16.75
scalar IntersectionExampleScenario.node[3].veinsmobility 	totalTime 	51.5
scalar IntersectionExampleScenario.node[3].veinsmobility 	stopTime 	68.5
scalar IntersectionExampleScenario.node[3].veinsmobility 	minSpeed 	0
scalar IntersectionExampleScenario.node[3].veinsmobility 	maxSpeed 	16.610336303711
scalar IntersectionExampleScenario.node[3].veinsmobility 	totalDistance 	548.18578599903
scalar IntersectionExampleScenario.node[3].veinsmobility 	totalCO2Emission 	153.93578018985
scalar IntersectionExampleScenario.node[4].appl 	VehicleRemoved 	0
scalar IntersectionExampleScenario.node[4].appl 	ArrivedAtDest 	1
scalar IntersectionExampleScenario.node[4].appl 	IntersectionEnterTime 	19
scalar IntersectionExampleScenario.node[4].appl 	IntersectionExitTime 	53.0953923747
scalar IntersectionExampleScenario.node[4].appl 	NumberOfCollisions 	0
scalar IntersectionExampleScenario.node[4].nic.phy80211p 	busyTime 	0
scalar IntersectionExampleScenario.node[4].nic.mac1609_4 	ReceivedUnicastPackets 	0
scalar IntersectionExampleScenario.node[4].nic.mac1609_4 	ReceivedBroadcasts 	0
scalar IntersectionExampleScenario.node[4].nic.mac1609_4 	SentPackets 	0
scalar IntersectionExampleScenario.node[4].nic.mac1609_4 	SNIRLostPackets 	0
scalar IntersectionExampleScenario.node[4].nic.mac1609_4 	RXTXLostPackets 	0
scalar IntersectionExampleScenario.node[4].nic.mac1609_4 	TotalLostPackets 	0
scalar IntersectionExampleScenario.node[4].nic.mac1609_4 	DroppedPacketsInMac 	0
scalar IntersectionExampleScenario.node[4].nic.mac1609_4 	TooLittleTime 	0
scalar IntersectionExampleScenario.node[4].nic.mac1609_4 	TimesIntoBackoff 	0
scalar IntersectionExampleScenario.node[4].nic.mac1609_4 	SlotsBackoff 	0
scalar IntersectionExampleScenario.node[4].nic.mac1609_4 	NumInternalContention 	0
scalar IntersectionExampleScenario.node[4].nic.mac1609_4 	totalBusyTime 	0
scalar IntersectionExampleScenario.node[4].veinsmobility 	startTime 	19
scalar IntersectionExampleScenario.node[4].veinsmobility 	totalTime 	50.5
scalar IntersectionExampleScenario.node[4].veinsmobility 	stopTime 	69.75
scalar IntersectionExampleScenario.node[4].veinsmobility 	minSpeed 	0
scalar IntersectionExampleScenario.node[4].veinsmobility 	maxSpeed 	15.64999961853
scalar IntersectionExampleScenario.node[4].veinsmobility 	totalDistance 	562.3886447009
scalar IntersectionExampleScenario.node[4].veinsmobility 	totalCO2Emission 	143.1519799824
scalar IntersectionExampleScenario.node[8].appl 	VehicleRemoved 	0
scalar IntersectionExampleScenario.node[8].appl 	ArrivedAtDest 	1
scalar IntersectionExampleScenario.node[8].appl 	IntersectionEnterTime 	31.75
scalar IntersectionExampleScenario.node[8].appl 	IntersectionExitTime 	56.092813919444
scalar IntersectionExampleScenario.node[8].appl 	NumberOfCollisions 	0
scalar IntersectionExampleScenario.node[8].nic.phy80211p 	busyTime 	0
scalar IntersectionExampleScenario.node[8].nic.mac1609_4 	ReceivedUnicastPackets 	0
scalar IntersectionExampleScenario.node[8].nic.mac1609_4 	ReceivedBroadcasts 	0
scalar IntersectionExampleScenario.node[8].nic.mac1609_4 	SentPackets 	0
scalar IntersectionExampleScenario.node[8].nic.mac1609_4 	SNIRLostPackets 	0
scalar IntersectionExampleScenario.node[8].nic.mac1609_4 	RXTXLostPackets 	0
scalar IntersectionExampleScenario.node[8].nic.mac1609_4 	TotalLostPackets 	0
scalar IntersectionExampleScenario.node[8].nic.mac1609_4 	DroppedPacketsInMac 	0
scalar IntersectionExampleScenario.node[8].nic.mac1609_4 	TooLittleTime 	0
scalar IntersectionExampleScenario.node[8].nic.mac1609_4 	TimesIntoBackoff 	0
scalar IntersectionExampleScenario.node[8].nic.mac1609_4 	SlotsBackoff 	0
scalar IntersectionExampleScenario.node[8].nic.mac1609_4 	NumInternalContention 	0
scalar IntersectionExampleScenario.node[8].nic.mac1609_4 	totalBusyTime 	0
scalar IntersectionExampleScenario.node[8].veinsmobility 	startTime 	31.75
scalar IntersectionExampleScenario.node[8].veinsmobility 	totalTime 	41.25
scalar IntersectionExampleScenario.node[8].veinsmobility 	stopTime 	73.25
scalar IntersectionExampleScenario.node[8].veinsmobility 	minSpeed 	5.6500000953674
scalar IntersectionExampleScenario.node[8].veinsmobility 	maxSpeed 	15.25
scalar IntersectionExampleScenario.node[8].veinsmobility 	totalDistance 	544.705982303
scalar IntersectionExampleScenario.node[8].veinsmobility 	totalCO2Emission 	135.23747442113
scalar IntersectionExampleScenario.node[9].appl 	VehicleRemoved 	0
scalar IntersectionExampleScenario.node[9].appl 	ArrivedAtDest 	1
scalar IntersectionExampleScenario.node[9].appl 	IntersectionEnterTime 	32.25
scalar IntersectionExampleScenario.node[9].appl 	IntersectionExitTime 	56.773734817369
scalar IntersectionExampleScenario.node[9].appl 	NumberOfCollisions 	0
scalar IntersectionExampleScenario.node[9].nic.phy80211p 	busyTime 	0
scalar IntersectionExampleScenario.node[9].nic.mac1609_4 	ReceivedUnicastPackets 	0
scalar IntersectionExampleScenario.node[9].nic.mac1609_4 	ReceivedBroadcasts 	0
scalar IntersectionExampleScenario.node[9].nic.mac1609_4 	SentPackets 	0
scalar IntersectionExampleScenario.node[9].nic.mac1609_4 	SNIRLostPackets 	0
scalar IntersectionExampleScenario.node[9].nic.mac1609_4 	RXTXLostPackets 	0
scalar IntersectionExampleScenario.node[9].nic.mac1609_4 	TotalLostPackets 	0
scalar IntersectionExampleScenario.node[9].nic.mac1609_4 	DroppedPacketsInMac 	0
scalar IntersectionExampleScenario.node[9].nic.mac1609_4 	TooLittleTime 	0
scalar IntersectionExampleScenario.node[9].nic.mac1609_4 	TimesIntoBackoff 	0
scalar IntersectionExampleScenario.node[9].nic.mac1609_4 	SlotsBackoff 	0
scalar IntersectionExampleScenario.node[9].nic.mac1609_4 	NumInternalContention 	0
scalar IntersectionExampleScenario.node[9].nic.mac1609_4 	totalBusyTime 	0
scalar IntersectionExampleScenario.node[9].veinsmobility 	startTime 	32.25
scalar IntersectionExampleScenario.node[9].veinsmobility 	totalTime 	41.5
scalar IntersectionExampleScenario.node[9].veinsmobility 	stopTime 	74
scalar IntersectionExampleScenario.node[9].veinsmobility 	minSpeed 	5.6500000953674
scalar IntersectionExampleScenario.node[9].veinsmobility 	maxSpeed 	15.508858680725
scalar IntersectionExampleScenario.node[9].veinsmobility 	totalDistance 	544.28267145245
scalar IntersectionExampleScenario.node[9].veinsmobility 	totalCO2Emission 	136.46126069688
scalar IntersectionExampleScenario.node[12].appl 	VehicleRemoved 	0
scalar IntersectionExampleScenario.node[12].appl 	ArrivedAtDest 	1
scalar IntersectionExampleScenario.node[12].appl 	IntersectionEnterTime 	35
scalar IntersectionExampleScenario.node[12].appl 	IntersectionExitTime 	59.022970643709
scalar IntersectionExampleScenario.node[12].appl 	NumberOfCollisions 	0
scalar IntersectionExampleScenario.node[12].nic.phy80211p 	busyTime 	0
scalar IntersectionExampleScenario.node[12].nic.mac1609_4 	ReceivedUnicastPackets 	0
scalar IntersectionExampleScenario.node[12].nic.mac1609_4 	ReceivedBroadcasts 	0
scalar IntersectionExampleScenario.node[12].nic.mac1609_4 	SentPackets 	0
scalar IntersectionExampleScenario.node[12].nic.mac1609_4 	SNIRLostPackets 	0
scalar IntersectionExampleScenario.node[12].nic.mac1609_4 	RXTXLostPackets 	0
scalar IntersectionExampleScenario.node[12].nic.mac1609_4 	TotalLostPackets 	0
scalar IntersectionExampleScenario.node[12].nic.mac1609_4 	DroppedPacketsInMac 	0
scalar IntersectionExampleScenario.node[12].nic.mac1609_4 	TooLittleTime 	0
scalar IntersectionExampleScenario.node[12].nic.mac1609_4 	TimesIntoBackoff 	0
scalar IntersectionExampleScenario.node[12].nic.mac1609_4 	SlotsBackoff 	0
scalar IntersectionExampleScenario.node[12].nic.mac1609_4 	NumInternalContention 	0
scalar IntersectionExampleScenario.node[12].nic.mac1609_4 	totalBusyTime 	0
scalar IntersectionExampleScenario.node[12].veinsmobility 	startTime 	35
scalar IntersectionExampleScenario.node[12].veinsmobility 	totalTime 	39.75
scalar IntersectionExampleScenario.node[12].veinsmobility 	stopTime 	75
scalar IntersectionExampleScenario.node[12].veinsmobility 	minSpeed 	5.6500000953674
scalar IntersectionExampleScenario.node[12].veinsmobility 	maxSpeed 	15.5
scalar IntersectionExampleScenario.node[12].veinsmobility 	totalDistance 	565.88143920898
scalar IntersectionExampleScenario.node[12].veinsmobility 	totalCO2Emission 	130.77891646833
scalar IntersectionExampleScenario.node[10].appl 	VehicleRemoved 	0
scalar IntersectionExampleScenario.node[10].appl 	ArrivedAtDest 	1
scalar IntersectionExampleScenario.node[10].appl 	IntersectionEnterTime 	33.75
scalar IntersectionExampleScenario.node[10].appl 	IntersectionExitTime 	59.045313335431
scalar IntersectionExampleScenario.node[10].appl 	NumberOfCollisions 	0
scalar IntersectionExampleScenario.node[10].nic.phy80211p 	busyTime 	0
scalar IntersectionExampleScenario.node[10].nic.mac1609_4 	ReceivedUnicastPackets 	0
scalar IntersectionExampleScenario.node[10].nic.mac1609_4 	ReceivedBroadcasts 	0
scalar IntersectionExampleScenario.node[10].nic.mac1609_4 	SentPackets 	0
scalar IntersectionExampleScenario.node[10].nic.mac1609_4 	SNIRLostPackets 	0
scalar IntersectionExampleScenario.node[10].nic.mac1609_4 	RXTXLostPackets 	0
scalar IntersectionExampleScenario.node[10].nic.mac1609_4 	TotalLostPackets 	0
scalar IntersectionExampleScenario.node[10].nic.mac1609_4 	DroppedPacketsInMac 	0
scalar IntersectionExampleScenario.node[10].nic.mac1609_4 	TooLittleTime 	0
scalar IntersectionExampleScenario.node[10].nic.mac1609_4 	TimesIntoBackoff 	0
scalar IntersectionExampleScenario.node[10].nic.mac1609_4 	SlotsBackoff 	0
scalar IntersectionExampleScenario.node[10].nic.mac1609_4 	NumInternalContention 	0
scalar IntersectionExampleScenario.node[10].nic.mac1609_4 	totalBusyTime 	0
scalar IntersectionExampleScenario.node[10].veinsmobility 	startTime 	33.75
scalar IntersectionExampleScenario.node[10].veinsmobility 	totalTime 	42
scalar IntersectionExampleScenario.node[10].veinsmobility 	stopTime 	76
scalar IntersectionExampleScenario.node[10].veinsmobility 	minSpeed 	5.6500000953674
scalar IntersectionExampleScenario.node[10].veinsmobility 	maxSpeed 	15.29932308197
scalar IntersectionExampleScenario.node[10].veinsmobility 	totalDistance 	570.34887420329
scalar IntersectionExampleScenario.node[10].veinsmobility 	totalCO2Emission 	132.18030706592
scalar IntersectionExampleScenario.node[11].appl 	VehicleRemoved 	0
scalar IntersectionExampleScenario.node[11].appl 	ArrivedAtDest 	1
scalar IntersectionExampleScenario.node[11].appl 	IntersectionEnterTime 	34.75
scalar IntersectionExampleScenario.node[11].appl 	IntersectionExitTime 	60.34191771003
scalar IntersectionExampleScenario.node[11].appl 	NumberOfCollisions 	0
scalar IntersectionExampleScenario.node[11].nic.phy80211p 	busyTime 	0
scalar IntersectionExampleScenario.node[11].nic.mac1609_4 	ReceivedUnicastPackets 	0
scalar IntersectionExampleScenario.node[11].nic.mac1609_4 	ReceivedBroadcasts 	0
scalar IntersectionExampleScenario.node[11].nic.mac1609_4 	SentPackets 	0
scalar IntersectionExampleScenario.node[11].nic.mac1609_4 	SNIRLostPackets 	0
scalar IntersectionExampleScenario.node[11].nic.mac1609_4 	RXTXLostPackets 	0
scalar IntersectionExampleScenario.node[11].nic.mac1609_4 	TotalLostPackets 	0
scalar IntersectionExampleScenario.node[11].nic.mac1609_4 	DroppedPacketsInMac 	0
scalar IntersectionExampleScenario.node[11].nic.mac1609_4 	TooLittleTime 	0
scalar IntersectionExampleScenario.node[11].nic.mac1609_4 	TimesIntoBackoff 	0
scalar IntersectionExampleScenario.node[11].nic.mac1609_4 	SlotsBackoff 	0
scalar IntersectionExampleScenario.node[11].nic.mac1609_4 	NumInternalContention 	0
scalar IntersectionExampleScenario.node[11].nic.mac1609_4 	totalBusyTime 	0
scalar IntersectionExampleScenario.node[11].veinsmobility 	startTime 	34.75
scalar IntersectionExampleScenario.node[11].veinsmobility 	totalTime 	41.5
scalar IntersectionExampleScenario.node[11].veinsmobility 	stopTime 	76.5
scalar IntersectionExampleScenario.node[11].veinsmobility 	minSpeed 	5.6500000953674
scalar IntersectionExampleScenario.node[11].veinsmobility 	maxSpeed 	15.5
scalar IntersectionExampleScenario.node[11].veinsmobility 	totalDistance 	583.29556274414
scalar IntersectionExampleScenario.node[11].veinsmobility 	totalCO2Emission 	126.88751269382
scalar IntersectionExampleScenario.node[15].appl 	VehicleRemoved 	0
scalar IntersectionExampleScenario.node[15].appl 	ArrivedAtDest 	1
scalar IntersectionExampleScenario.node[15].appl 	IntersectionEnterTime 	39.5
scalar IntersectionExampleScenario.node[15].appl 	IntersectionExitTime 	63.596195834776
scalar IntersectionExampleScenario.node[15].appl 	NumberOfCollisions 	0
scalar IntersectionExampleScenario.node[15].nic.phy80211p 	busyTime 	0
scalar IntersectionExampleScenario.node[15].nic.mac1609_4 	ReceivedUnicastPackets 	0
scalar IntersectionExampleScenario.node[15].nic.mac1609_4 	ReceivedBroadcasts 	0
scalar IntersectionExampleScenario.node[15].nic.mac1609_4 	SentPackets 	0
scalar IntersectionExampleScenario.node[15].nic.mac1609_4 	SNIRLostPackets 	0
scalar IntersectionExampleScenario.node[15].nic.mac1609_4 	RXTXLostPackets 	0
scalar IntersectionExampleScenario.node[15].nic.mac1609_4 	TotalLostPackets 	0
scalar IntersectionExampleScenario.node[15].nic.mac1609_4 	DroppedPacketsInMac 	0
scalar IntersectionExampleScenario.node[15].nic.mac1609_4 	TooLittleTime 	0
scalar IntersectionExampleScenario.node[15].nic.mac1609_4 	TimesIntoBackoff 	0
scalar IntersectionExampleScenario.node[15].nic.mac1609_4 	SlotsBackoff 	0
scalar IntersectionExampleScenario.node[15].nic.mac1609_4 	NumInternalContention 	0
scalar IntersectionExampleScenario.node[15].nic.mac1609_4 	totalBusyTime 	0
scalar IntersectionExampleScenario.node[15].veinsmobility 	startTime 	39.5
scalar IntersectionExampleScenario.node[15].veinsmobility 	totalTime 	40.5
scalar IntersectionExampleScenario.node[15].veinsmobility 	stopTime 	80.25
scalar IntersectionExampleScenario.node[15].veinsmobility 	minSpeed 	5.6500000953674
scalar IntersectionExampleScenario.node[15].veinsmobility 	maxSpeed 	15.02499961853
scalar IntersectionExampleScenario.node[15].veinsmobility 	totalDistance 	561.47301483154
scalar IntersectionExampleScenario.node[15].veinsmobility 	totalCO2Emission 	115.36322068603
scalar IntersectionExampleScenario.node[13].appl 	VehicleRemoved 	0
scalar IntersectionExampleScenario.node[13].appl 	ArrivedAtDest 	1
scalar IntersectionExampleScenario.node[13].appl 	IntersectionEnterTime 	38.75
scalar IntersectionExampleScenario.node[13].appl 	IntersectionExitTime 	66.339202814735
scalar IntersectionExampleScenario.node[13].appl 	NumberOfCollisions 	0
scalar IntersectionExampleScenario.node[13].nic.phy80211p 	busyTime 	0
scalar IntersectionExampleScenario.node[13].nic.mac1609_4 	ReceivedUnicastPackets 	0
scalar IntersectionExampleScenario.node[13].nic.mac1609_4 	ReceivedBroadcasts 	0
scalar IntersectionExampleScenario.node[13].nic.mac1609_4 	SentPackets 	0
scalar IntersectionExampleScenario.node[13].nic.mac1609_4 	SNIRLostPackets 	0
scalar IntersectionExampleScenario.node[13].nic.mac1609_4 	RXTXLostPackets 	0
scalar IntersectionExampleScenario.node[13].nic.mac1609_4 	TotalLostPackets 	0
scalar IntersectionExampleScenario.node[13].nic.mac1609_4 	DroppedPacketsInMac 	0
scalar IntersectionExampleScenario.node[13].nic.mac1609_4 	TooLittleTime 	0
scalar IntersectionExampleScenario.node[13].nic.mac1609_4 	TimesIntoBackoff 	0
scalar IntersectionExampleScenario.node[13].nic.mac1609_4 	SlotsBackoff 	0
scalar IntersectionExampleScenario.node[13].nic.mac1609_4 	NumInternalContention 	0
scalar IntersectionExampleScenario.node[13].nic.mac1609_4 	totalBusyTime 	0
scalar IntersectionExampleScenario.node[13].veinsmobility 	startTime 	38.75
scalar IntersectionExampleScenario.node[13].veinsmobility 	totalTime 	43.75
scalar IntersectionExampleScenario.node[13].veinsmobility 	stopTime 	82.75
scalar IntersectionExampleScenario.node[13].veinsmobility 	minSpeed 	0
scalar IntersectionExampleScenario.node[13].veinsmobility 	maxSpeed 	15.375
scalar IntersectionExampleScenario.node[13].veinsmobility 	totalDistance 	552.79929351807
scalar IntersectionExampleScenario.node[13].veinsmobility 	totalCO2Emission 	135.47642640299
scalar IntersectionExampleScenario.node[7].appl 	VehicleRemoved 	0
scalar IntersectionExampleScenario.node[7].appl 	ArrivedAtDest 	1
scalar IntersectionExampleScenario.node[7].appl 	IntersectionEnterTime 	27.75
scalar IntersectionExampleScenario.node[7].appl 	IntersectionExitTime 	65.510418645543
scalar IntersectionExampleScenario.node[7].appl 	NumberOfCollisions 	0
scalar IntersectionExampleScenario.node[7].nic.phy80211p 	busyTime 	0
scalar IntersectionExampleScenario.node[7].nic.mac1609_4 	ReceivedUnicastPackets 	0
scalar IntersectionExampleScenario.node[7].nic.mac1609_4 	ReceivedBroadcasts 	0
scalar IntersectionExampleScenario.node[7].nic.mac1609_4 	SentPackets 	0
scalar IntersectionExampleScenario.node[7].nic.mac1609_4 	SNIRLostPackets 	0
scalar IntersectionExampleScenario.node[7].nic.mac1609_4 	RXTXLostPackets 	0
scalar IntersectionExampleScenario.node[7].nic.mac1609_4 	TotalLostPackets 	0
scalar IntersectionExampleScenario.node[7].nic.mac1609_4 	DroppedPacketsInMac 	0
scalar IntersectionExampleScenario.node[7].nic.mac1609_4 	TooLittleTime 	0
scalar IntersectionExampleScenario.node[7].nic.mac1609_4 	TimesIntoBackoff 	0
scalar IntersectionExampleScenario.node[7].nic.mac1609_4 	SlotsBackoff 	0
scalar IntersectionExampleScenario.node[7].nic.mac1609_4 	NumInternalContention 	0
scalar IntersectionExampleScenario.node[7].nic.mac1609_4 	totalBusyTime 	0
scalar IntersectionExampleScenario.node[7].veinsmobility 	startTime 	27.75
scalar IntersectionExampleScenario.node[7].veinsmobility 	totalTime 	55.5
scalar IntersectionExampleScenario.node[7].veinsmobility 	stopTime 	83.5
scalar IntersectionExampleScenario.node[7].veinsmobility 	minSpeed 	0
scalar IntersectionExampleScenario.node[7].veinsmobility 	maxSpeed 	14.625
scalar IntersectionExampleScenario.node[7].veinsmobility 	totalDistance 	551.98255063445
scalar IntersectionExampleScenario.node[7].veinsmobility 	totalCO2Emission 	140.39291460907
scalar IntersectionExampleScenario.node[14].appl 	VehicleRemoved 	0
scalar IntersectionExampleScenario.node[14].appl 	ArrivedAtDest 	1
scalar IntersectionExampleScenario.node[14].appl 	IntersectionEnterTime 	39.25
scalar IntersectionExampleScenario.node[14].appl 	IntersectionExitTime 	67.591314444406
scalar IntersectionExampleScenario.node[14].appl 	NumberOfCollisions 	0
scalar IntersectionExampleScenario.node[14].nic.phy80211p 	busyTime 	0
scalar IntersectionExampleScenario.node[14].nic.mac1609_4 	ReceivedUnicastPackets 	0
scalar IntersectionExampleScenario.node[14].nic.mac1609_4 	ReceivedBroadcasts 	0
scalar IntersectionExampleScenario.node[14].nic.mac1609_4 	SentPackets 	0
scalar IntersectionExampleScenario.node[14].nic.mac1609_4 	SNIRLostPackets 	0
scalar IntersectionExampleScenario.node[14].nic.mac1609_4 	RXTXLostPackets 	0
scalar IntersectionExampleScenario.node[14].nic.mac1609_4 	TotalLostPackets 	0
scalar IntersectionExampleScenario.node[14].nic.mac1609_4 	DroppedPacketsInMac 	0
scalar IntersectionExampleScenario.node[14].nic.mac1609_4 	TooLittleTime 	0
scalar IntersectionExampleScenario.node[14].nic.mac1609_4 	TimesIntoBackoff 	0
scalar IntersectionExampleScenario.node[14].nic.mac1609_4 	SlotsBackoff 	0
scalar IntersectionExampleScenario.node[14].nic.mac1609_4 	NumInternalContention 	0
scalar IntersectionExampleScenario.node[14].nic.mac1609_4 	totalBusyTime 	0
scalar IntersectionExampleScenario.node[14].veinsmobility 	startTime 	39.25
scalar IntersectionExampleScenario.node[14].veinsmobility 	totalTime 	45
scalar IntersectionExampleScenario.node[14].veinsmobility 	stopTime 	84.5
scalar IntersectionExampleScenario.node[14].veinsmobility 	minSpeed 	1.4758096933365
scalar IntersectionExampleScenario.node[14].veinsmobility 	maxSpeed 	16.148614883423
scalar IntersectionExampleScenario.node[14].veinsmobility 	totalDistance 	573.72501995886
scalar IntersectionExampleScenario.node[14].veinsmobility 	totalCO2Emission 	145.4709487433
scalar IntersectionExampleScenario.node[17].appl 	VehicleRemoved 	0
scalar IntersectionExampleScenario.node[17].appl 	ArrivedAtDest 	1
scalar IntersectionExampleScenario.node[17].appl 	IntersectionEnterTime 	42.75
scalar IntersectionExampleScenario.node[17].appl 	IntersectionExitTime 	68.833672100998
scalar IntersectionExampleScenario.node[17].appl 	NumberOfCollisions 	0
scalar IntersectionExampleScenario.node[17].nic.phy80211p 	busyTime 	0
scalar IntersectionExampleScenario.node[17].nic.mac1609_4 	ReceivedUnicastPackets 	0
scalar IntersectionExampleScenario.node[17].nic.mac1609_4 	ReceivedBroadcasts 	0
scalar IntersectionExampleScenario.node[17].nic.mac1609_4 	SentPackets 	0
scalar IntersectionExampleScenario.node[17].nic.mac1609_4 	SNIRLostPackets 	0
scalar IntersectionExampleScenario.node[17].nic.mac1609_4 	RXTXLostPackets 	0
scalar IntersectionExampleScenario.node[17].nic.mac1609_4 	TotalLostPackets 	0
scalar IntersectionExampleScenario.node[17].nic.mac1609_4 	DroppedPacketsInMac 	0
scalar IntersectionExampleScenario.node[17].nic.mac1609_4 	TooLittleTime 	0
scalar IntersectionExampleScenario.node[17].nic.mac1609_4 	TimesIntoBackoff 	0
scalar IntersectionExampleScenario.node[17].nic.mac1609_4 	SlotsBackoff 	0
scalar IntersectionExampleScenario.node[17].nic.mac1609_4 	NumInternalContention 	0
scalar IntersectionExampleScenario.node[17].nic.mac1609_4 	totalBusyTime 	0
scalar IntersectionExampleScenario.node[17].veinsmobility 	startTime 	42.75
scalar IntersectionExampleScenario.node[17].veinsmobility 	totalTime 	41.75
scalar IntersectionExampleScenario.node[17].veinsmobility 	stopTime 	84.75
scalar IntersectionExampleScenario.node[17].veinsmobility 	minSpeed 	5.6500000953674
scalar IntersectionExampleScenario.node[17].veinsmobility 	maxSpeed 	16.27499961853
scalar IntersectionExampleScenario.node[17].veinsmobility 	totalDistance 	549.69824140927
scalar IntersectionExampleScenario.node[17].veinsmobility 	totalCO2Emission 	139.83694583228
scalar IntersectionExampleScenario.node[19].appl 	VehicleRemoved 	0
scalar IntersectionExampleScenario.node[19].appl 	ArrivedAtDest 	1
scalar IntersectionExampleScenario.node[19].appl 	IntersectionEnterTime 	45.75
scalar IntersectionExampleScenario.node[19].appl 	IntersectionExitTime 	71.298360668123
scalar IntersectionExampleScenario.node[19].appl 	NumberOfCollisions 	0
scalar IntersectionExampleScenario.node[19].nic.phy80211p 	busyTime 	0
scalar IntersectionExampleScenario.node[19].nic.mac1609_4 	ReceivedUnicastPackets 	0
scalar IntersectionExampleScenario.node[19].nic.mac1609_4 	ReceivedBroadcasts 	0
scalar IntersectionExampleScenario.node[19].nic.mac1609_4 	SentPackets 	0
scalar IntersectionExampleScenario.node[19].nic.mac1609_4 	SNIRLostPackets 	0
scalar IntersectionExampleScenario.node[19].nic.mac1609_4 	RXTXLostPackets 	0
scalar IntersectionExampleScenario.node[19].nic.mac1609_4 	TotalLostPackets 	0
scalar IntersectionExampleScenario.node[19].nic.mac1609_4 	DroppedPacketsInMac 	0
scalar IntersectionExampleScenario.node[19].nic.mac1609_4 	TooLittleTime 	0
scalar IntersectionExampleScenario.node[19].nic.mac1609_4 	TimesIntoBackoff 	0
scalar IntersectionExampleScenario.node[19].nic.mac1609_4 	SlotsBackoff 	0
scalar IntersectionExampleScenario.node[19].nic.mac1609_4 	NumInternalContention 	0
scalar IntersectionExampleScenario.node[19].nic.mac1609_4 	totalBusyTime 	0
scalar IntersectionExampleScenario.node[19].veinsmobility 	startTime 	45.75
scalar IntersectionExampleScenario.node[19].veinsmobility 	totalTime 	42.5
scalar IntersectionExampleScenario.node[19].veinsmobility 	stopTime 	88.5
scalar IntersectionExampleScenario.node[19].veinsmobility 	minSpeed 	0
scalar IntersectionExampleScenario.node[19].veinsmobility 	maxSpeed 	15.25
scalar IntersectionExampleScenario.node[19].veinsmobility 	totalDistance 	519.88966018513
scalar IntersectionExampleScenario.node[19].veinsmobility 	totalCO2Emission 	134.8391706242
scalar IntersectionExampleScenario.node[18].appl 	VehicleRemoved 	0
scalar IntersectionExampleScenario.node[18].appl 	ArrivedAtDest 	1
scalar IntersectionExampleScenario.node[18].appl 	IntersectionEnterTime 	45
scalar IntersectionExampleScenario.node[18].appl 	IntersectionExitTime 	73.526185196126
scalar IntersectionExampleScenario.node[18].appl 	NumberOfCollisions 	0
scalar IntersectionExampleScenario.node[18].nic.phy80211p 	busyTime 	0
scalar IntersectionExampleScenario.node[18].nic.mac1609_4 	ReceivedUnicastPackets 	0
scalar IntersectionExampleScenario.node[18].nic.mac1609_4 	ReceivedBroadcasts 	0
scalar IntersectionExampleScenario.node[18].nic.mac1609_4 	SentPackets 	0
scalar IntersectionExampleScenario.node[18].nic.mac1609_4 	SNIRLostPackets 	0
scalar IntersectionExampleScenario.node[18].nic.mac1609_4 	RXTXLostPackets 	0
scalar IntersectionExampleScenario.node[18].nic.mac1609_4 	TotalLostPackets 	0
scalar IntersectionExampleScenario.node[18].nic.mac1609_4 	DroppedPacketsInMac 	0
scalar IntersectionExampleScenario.node[18].nic.mac1609_4 	TooLittleTime 	0
scalar IntersectionExampleScenario.node[18].nic.mac1609_4 	TimesIntoBackoff 	0
scalar IntersectionExampleScenario.node[18].nic.mac1609_4 	SlotsBackoff 	0
scalar IntersectionExampleScenario.node[18].nic.mac1609_4 	NumInternalContention 	0
scalar IntersectionExampleScenario.node[18].nic.mac1609_4 	totalBusyTime 	0
scalar IntersectionExampleScenario.node[18].veinsmobility 	startTime 	45
scalar IntersectionExampleScenario.node[18].veinsmobility 	totalTime 	45
scalar IntersectionExampleScenario.node[18].veinsmobility 	stopTime 	90.25
scalar IntersectionExampleScenario.node[18].veinsmobility 	minSpeed 	3.0610613822937
scalar IntersectionExampleScenario.node[18].veinsmobility 	maxSpeed 	15.717918395996
scalar IntersectionExampleScenario.node[18].veinsmobility 	totalDistance 	550.80223102835
scalar IntersectionExampleScenario.node[18].veinsmobility 	totalCO2Emission 	146.53401011359
scalar IntersectionExampleScenario.node[16].appl 	VehicleRemoved 	0
scalar IntersectionExampleScenario.node[16].appl 	ArrivedAtDest 	1
scalar IntersectionExampleScenario.node[16].appl 	IntersectionEnterTime 	41.25
scalar IntersectionExampleScenario.node[16].appl 	IntersectionExitTime 	81.511237176484
scalar IntersectionExampleScenario.node[16].appl 	NumberOfCollisions 	0
scalar IntersectionExampleScenario.node[16].nic.phy80211p 	busyTime 	0
scalar IntersectionExampleScenario.node[16].nic.mac1609_4 	ReceivedUnicastPackets 	0
scalar IntersectionExampleScenario.node[16].nic.mac1609_4 	ReceivedBroadcasts 	0
scalar IntersectionExampleScenario.node[16].nic.mac1609_4 	SentPackets 	0
scalar IntersectionExampleScenario.node[16].nic.mac1609_4 	SNIRLostPackets 	0
scalar IntersectionExampleScenario.node[16].nic.mac1609_4 	RXTXLostPackets 	0
scalar IntersectionExampleScenario.node[16].nic.mac1609_4 	TotalLostPackets 	0
scalar IntersectionExampleScenario.node[16].nic.mac1609_4 	DroppedPacketsInMac 	0
scalar IntersectionExampleScenario.node[16].nic.mac1609_4 	TooLittleTime 	0
scalar IntersectionExampleScenario.node[16].nic.mac1609_4 	TimesIntoBackoff 	0
scalar IntersectionExampleScenario.node[16].nic.mac1609_4 	SlotsBackoff 	0
scalar IntersectionExampleScenario.node[16].nic.mac1609_4 	NumInternalContention 	0
scalar IntersectionExampleScenario.node[16].nic.mac1609_4 	totalBusyTime 	0
scalar IntersectionExampleScenario.node[16].veinsmobility 	startTime 	41.25
scalar IntersectionExampleScenario.node[16].veinsmobility 	totalTime 	57.75
scalar IntersectionExampleScenario.node[16].veinsmobility 	stopTime 	99.25
scalar IntersectionExampleScenario.node[16].veinsmobility 	minSpeed 	0
scalar IntersectionExampleScenario.node[16].veinsmobility 	maxSpeed 	14.625
scalar IntersectionExampleScenario.node[16].veinsmobility 	totalDistance 	567.39126492888
scalar IntersectionExampleScenario.node[16].veinsmobility 	totalCO2Emission 	144.48026801552
scalar IntersectionExampleScenario.node[20].appl 	VehicleRemoved 	0
scalar IntersectionExampleScenario.node[20].appl 	ArrivedAtDest 	1
scalar IntersectionExampleScenario.node[20].appl 	IntersectionEnterTime 	54.75
scalar IntersectionExampleScenario.node[20].appl 	IntersectionExitTime 	83.62056616004
scalar IntersectionExampleScenario.node[20].appl 	NumberOfCollisions 	0
scalar IntersectionExampleScenario.node[20].nic.phy80211p 	busyTime 	0
scalar IntersectionExampleScenario.node[20].nic.mac1609_4 	ReceivedUnicastPackets 	0
scalar IntersectionExampleScenario.node[20].nic.mac1609_4 	ReceivedBroadcasts 	0
scalar IntersectionExampleScenario.node[20].nic.mac1609_4 	SentPackets 	0
scalar IntersectionExampleScenario.node[20].nic.mac1609_4 	SNIRLostPackets 	0
scalar IntersectionExampleScenario.node[20].nic.mac1609_4 	RXTXLostPackets 	0
scalar IntersectionExampleScenario.node[20].nic.mac1609_4 	TotalLostPackets 	0
scalar IntersectionExampleScenario.node[20].nic.mac1609_4 	DroppedPacketsInMac 	0
scalar IntersectionExampleScenario.node[20].nic.mac1609_4 	TooLittleTime 	0
scalar IntersectionExampleScenario.node[20].nic.mac1609_4 	TimesIntoBackoff 	0
scalar IntersectionExampleScenario.node[20].nic.mac1609_4 	SlotsBackoff 	0
scalar IntersectionExampleScenario.node[20].nic.mac1609_4 	NumInternalContention 	0
scalar IntersectionExampleScenario.node[20].nic.mac1609_4 	totalBusyTime 	0
scalar IntersectionExampleScenario.node[20].veinsmobility 	startTime 	54.75
scalar IntersectionExampleScenario.node[20].veinsmobility 	totalTime 	44.75
scalar IntersectionExampleScenario.node[20].veinsmobility 	stopTime 	99.75
scalar IntersectionExampleScenario.node[20].veinsmobility 	minSpeed 	3.2275638580322
scalar IntersectionExampleScenario.node[20].veinsmobility 	maxSpeed 	15.64999961853
scalar IntersectionExampleScenario.node[20].veinsmobility 	totalDistance 	554.3176651001
scalar IntersectionExampleScenario.node[20].veinsmobility 	totalCO2Emission 	136.69098176051
scalar IntersectionExampleScenario.node[22].appl 	VehicleRemoved 	0
scalar IntersectionExampleScenario.node[22].appl 	ArrivedAtDest 	1
scalar IntersectionExampleScenario.node[22].appl 	IntersectionEnterTime 	63.75
scalar IntersectionExampleScenario.node[22].appl 	IntersectionExitTime 	86.116875870561
scalar IntersectionExampleScenario.node[22].appl 	NumberOfCollisions 	0
scalar IntersectionExampleScenario.node[22].nic.phy80211p 	busyTime 	0
scalar IntersectionExampleScenario.node[22].nic.mac1609_4 	ReceivedUnicastPackets 	0
scalar IntersectionExampleScenario.node[22].nic.mac1609_4 	ReceivedBroadcasts 	0
scalar IntersectionExampleScenario.node[22].nic.mac1609_4 	SentPackets 	0
scalar IntersectionExampleScenario.node[22].nic.mac1609_4 	SNIRLostPackets 	0
scalar IntersectionExampleScenario.node[22].nic.mac1609_4 	RXTXLostPackets 	0
scalar IntersectionExampleScenario.node[22].nic.mac1609_4 	TotalLostPackets 	0
scalar IntersectionExampleScenario.node[22].nic.mac1609_4 	DroppedPacketsInMac 	0
scalar IntersectionExampleScenario.node[22].nic.mac1609_4 	TooLittleTime 	0
scalar IntersectionExampleScenario.node[22].nic.mac1609_4 	TimesIntoBackoff 	0
scalar IntersectionExampleScenario.node[22].nic.mac1609_4 	SlotsBackoff 	0
scalar IntersectionExampleScenario.node[22].nic.mac1609_4 	NumInternalContention 	0
scalar IntersectionExampleScenario.node[22].nic.mac1609_4 	totalBusyTime 	0
scalar IntersectionExampleScenario.node[22].veinsmobility 	startTime 	63.75
scalar IntersectionExampleScenario.node[22].veinsmobility 	totalTime 	37.75
scalar IntersectionExampleScenario.node[22].veinsmobility 	stopTime 	101.75
scalar IntersectionExampleScenario.node[22].veinsmobility 	minSpeed 	5.6500000953674
scalar IntersectionExampleScenario.node[22].veinsmobility 	maxSpeed 	16.27499961853
scalar IntersectionExampleScenario.node[22].veinsmobility 	totalDistance 	551.43392944336
scalar IntersectionExampleScenario.node[22].veinsmobility 	totalCO2Emission 	120.91989472968
scalar IntersectionExampleScenario.node[23].appl 	VehicleRemoved 	0
scalar IntersectionExampleScenario.node[23].appl 	ArrivedAtDest 	1
scalar IntersectionExampleScenario.node[23].appl 	IntersectionEnterTime 	70.25
scalar IntersectionExampleScenario.node[23].appl 	IntersectionExitTime 	93.804894627014
scalar IntersectionExampleScenario.node[23].appl 	NumberOfCollisions 	0
scalar IntersectionExampleScenario.node[23].nic.phy80211p 	busyTime 	0
scalar IntersectionExampleScenario.node[23].nic.mac1609_4 	ReceivedUnicastPackets 	0
scalar IntersectionExampleScenario.node[23].nic.mac1609_4 	ReceivedBroadcasts 	0
scalar IntersectionExampleScenario.node[23].nic.mac1609_4 	SentPackets 	0
scalar IntersectionExampleScenario.node[23].nic.mac1609_4 	SNIRLostPackets 	0
scalar IntersectionExampleScenario.node[23].nic.mac1609_4 	RXTXLostPackets 	0
scalar IntersectionExampleScenario.node[23].nic.mac1609_4 	TotalLostPackets 	0
scalar IntersectionExampleScenario.node[23].nic.mac1609_4 	DroppedPacketsInMac 	0
scalar IntersectionExampleScenario.node[23].nic.mac1609_4 	TooLittleTime 	0
scalar IntersectionExampleScenario.node[23].nic.mac1609_4 	TimesIntoBackoff 	0
scalar IntersectionExampleScenario.node[23].nic.mac1609_4 	SlotsBackoff 	0
scalar IntersectionExampleScenario.node[23].nic.mac1609_4 	NumInternalContention 	0
scalar IntersectionExampleScenario.node[23].nic.mac1609_4 	totalBusyTime 	0
scalar IntersectionExampleScenario.node[23].veinsmobility 	startTime 	70.25
scalar IntersectionExampleScenario.node[23].veinsmobility 	totalTime 	40
scalar IntersectionExampleScenario.node[23].veinsmobility 	stopTime 	110.5
scalar IntersectionExampleScenario.node[23].veinsmobility 	minSpeed 	5.6500000953674
scalar IntersectionExampleScenario.node[23].veinsmobility 	maxSpeed 	15.375
scalar IntersectionExampleScenario.node[23].veinsmobility 	totalDistance 	550.34828961618
scalar IntersectionExampleScenario.node[23].veinsmobility 	totalCO2Emission 	121.11181003779
scalar IntersectionExampleScenario.node[24].appl 	VehicleRemoved 	0
scalar IntersectionExampleScenario.node[24].appl 	ArrivedAtDest 	1
scalar IntersectionExampleScenario.node[24].appl 	IntersectionEnterTime 	70.75
scalar IntersectionExampleScenario.node[24].appl 	IntersectionExitTime 	95.081448257028
scalar IntersectionExampleScenario.node[24].appl 	NumberOfCollisions 	0
scalar IntersectionExampleScenario.node[24].nic.phy80211p 	busyTime 	0
scalar IntersectionExampleScenario.node[24].nic.mac1609_4 	ReceivedUnicastPackets 	0
scalar IntersectionExampleScenario.node[24].nic.mac1609_4 	ReceivedBroadcasts 	0
scalar IntersectionExampleScenario.node[24].nic.mac1609_4 	SentPackets 	0
scalar IntersectionExampleScenario.node[24].nic.mac1609_4 	SNIRLostPackets 	0
scalar IntersectionExampleScenario.node[24].nic.mac1609_4 	RXTXLostPackets 	0
scalar IntersectionExampleScenario.node[24].nic.mac1609_4 	TotalLostPackets 	0
scalar IntersectionExampleScenario.node[24].nic.mac1609_4 	DroppedPacketsInMac 	0
scalar IntersectionExampleScenario.node[24].nic.mac1609_4 	TooLittleTime 	0
scalar IntersectionExampleScenario.node[24].nic.mac1609_4 	TimesIntoBackoff 	0
scalar IntersectionExampleScenario.node[24].nic.mac1609_4 	SlotsBackoff 	0
scalar IntersectionExampleScenario.node[24].nic.mac1609_4 	NumInternalContention 	0
scalar IntersectionExampleScenario.node[24].nic.mac1609_4 	totalBusyTime 	0
scalar IntersectionExampleScenario.node[24].veinsmobility 	startTime 	70.75
scalar IntersectionExampleScenario.node[24].veinsmobility 	totalTime 	40
scalar IntersectionExampleScenario.node[24].veinsmobility 	stopTime 	111
scalar IntersectionExampleScenario.node[24].veinsmobility 	minSpeed 	5.6500000953674
scalar IntersectionExampleScenario.node[24].veinsmobility 	maxSpeed 	16.125
scalar IntersectionExampleScenario.node[24].veinsmobility 	totalDistance 	577.43589782715
scalar IntersectionExampleScenario.node[24].veinsmobility 	totalCO2Emission 	128.28243351749
scalar IntersectionExampleScenario.node[21].appl 	VehicleRemoved 	0
scalar IntersectionExampleScenario.node[21].appl 	ArrivedAtDest 	1
scalar IntersectionExampleScenario.node[21].appl 	IntersectionEnterTime 	60
scalar IntersectionExampleScenario.node[21].appl 	IntersectionExitTime 	97.261576354329
scalar IntersectionExampleScenario.node[21].appl 	NumberOfCollisions 	0
scalar IntersectionExampleScenario.node[21].nic.phy80211p 	busyTime 	0
scalar IntersectionExampleScenario.node[21].nic.mac1609_4 	ReceivedUnicastPackets 	0
scalar IntersectionExampleScenario.node[21].nic.mac1609_4 	ReceivedBroadcasts 	0
scalar IntersectionExampleScenario.node[21].nic.mac1609_4 	SentPackets 	0
scalar IntersectionExampleScenario.node[21].nic.mac1609_4 	SNIRLostPackets 	0
scalar IntersectionExampleScenario.node[21].nic.mac1609_4 	RXTXLostPackets 	0
scalar IntersectionExampleScenario.node[21].nic.mac1609_4 	TotalLostPackets 	0
scalar IntersectionExampleScenario.node[21].nic.mac1609_4 	DroppedPacketsInMac 	0
scalar IntersectionExampleScenario.node[21].nic.mac1609_4 	TooLittleTime 	0
scalar IntersectionExampleScenario.node[21].nic.mac1609_4 	TimesIntoBackoff 	0
scalar IntersectionExampleScenario.node[21].nic.mac1609_4 	SlotsBackoff 	0
scalar IntersectionExampleScenario.node[21].nic.mac1609_4 	NumInternalContention 	0
scalar IntersectionExampleScenario.node[21].nic.mac1609_4 	totalBusyTime 	0
scalar IntersectionExampleScenario.node[21].veinsmobility 	startTime 	60
scalar IntersectionExampleScenario.node[21].veinsmobility 	totalTime 	53.75
scalar IntersectionExampleScenario.node[21].veinsmobility 	stopTime 	114
scalar IntersectionExampleScenario.node[21].veinsmobility 	minSpeed 	0
scalar IntersectionExampleScenario.node[21].veinsmobility 	maxSpeed 	15.875
scalar IntersectionExampleScenario.node[21].veinsmobility 	totalDistance 	544.83437253386
scalar IntersectionExampleScenario.node[21].veinsmobility 	totalCO2Emission 	148.5919933181
scalar IntersectionExampleScenario.node[26].appl 	VehicleRemoved 	0
scalar IntersectionExampleScenario.node[26].appl 	ArrivedAtDest 	1
scalar IntersectionExampleScenario.node[26].appl 	IntersectionEnterTime 	80.75
scalar IntersectionExampleScenario.node[26].appl 	IntersectionExitTime 	103.52039188062
scalar IntersectionExampleScenario.node[26].appl 	NumberOfCollisions 	0
scalar IntersectionExampleScenario.node[26].nic.phy80211p 	busyTime 	0
scalar IntersectionExampleScenario.node[26].nic.mac1609_4 	ReceivedUnicastPackets 	0
scalar IntersectionExampleScenario.node[26].nic.mac1609_4 	ReceivedBroadcasts 	0
scalar IntersectionExampleScenario.node[26].nic.mac1609_4 	SentPackets 	0
scalar IntersectionExampleScenario.node[26].nic.mac1609_4 	SNIRLostPackets 	0
scalar IntersectionExampleScenario.node[26].nic.mac1609_4 	RXTXLostPackets 	0
scalar IntersectionExampleScenario.node[26].nic.mac1609_4 	TotalLostPackets 	0
scalar IntersectionExampleScenario.node[26].nic.mac1609_4 	DroppedPacketsInMac 	0
scalar IntersectionExampleScenario.node[26].nic.mac1609_4 	TooLittleTime 	0
scalar IntersectionExampleScenario.node[26].nic.mac1609_4 	TimesIntoBackoff 	0
scalar IntersectionExampleScenario.node[26].nic.mac1609_4 	SlotsBackoff 	0
scalar IntersectionExampleScenario.node[26].nic.mac1609_4 	NumInternalContention 	0
scalar IntersectionExampleScenario.node[26].nic.mac1609_4 	totalBusyTime 	0
scalar IntersectionExampleScenario.node[26].veinsmobility 	startTime 	80.75
scalar IntersectionExampleScenario.node[26].veinsmobility 	totalTime 	39
scalar IntersectionExampleScenario.node[26].veinsmobility 	stopTime 	120
scalar IntersectionExampleScenario.node[26].veinsmobility 	minSpeed 	5.6500000953674
scalar IntersectionExampleScenario.node[26].veinsmobility 	maxSpeed 	16.27499961853
scalar IntersectionExampleScenario.node[26].veinsmobility 	totalDistance 	545.68705100083
scalar IntersectionExampleScenario.node[26].veinsmobility 	totalCO2Emission 	134.41642798602
scalar IntersectionExampleScenario.node[27].appl 	VehicleRemoved 	0
scalar IntersectionExampleScenario.node[27].appl 	ArrivedAtDest 	1
scalar IntersectionExampleScenario.node[27].appl 	IntersectionEnterTime 	84.75
scalar IntersectionExampleScenario.node[27].appl 	IntersectionExitTime 	108.35672686202
scalar IntersectionExampleScenario.node[27].appl 	NumberOfCollisions 	0
scalar IntersectionExampleScenario.node[27].nic.phy80211p 	busyTime 	0
scalar IntersectionExampleScenario.node[27].nic.mac1609_4 	ReceivedUnicastPackets 	0
scalar IntersectionExampleScenario.node[27].nic.mac1609_4 	ReceivedBroadcasts 	0
scalar IntersectionExampleScenario.node[27].nic.mac1609_4 	SentPackets 	0
scalar IntersectionExampleScenario.node[27].nic.mac1609_4 	SNIRLostPackets 	0
scalar IntersectionExampleScenario.node[27].nic.mac1609_4 	RXTXLostPackets 	0
scalar IntersectionExampleScenario.node[27].nic.mac1609_4 	TotalLostPackets 	0
scalar IntersectionExampleScenario.node[27].nic.mac1609_4 	DroppedPacketsInMac 	0
scalar IntersectionExampleScenario.node[27].nic.mac1609_4 	TooLittleTime 	0
scalar IntersectionExampleScenario.node[27].nic.mac1609_4 	TimesIntoBackoff 	0
scalar IntersectionExampleScenario.node[27].nic.mac1609_4 	SlotsBackoff 	0
scalar IntersectionExampleScenario.node[27].nic.mac1609_4 	NumInternalContention 	0
scalar IntersectionExampleScenario.node[27].nic.mac1609_4 	totalBusyTime 	0
scalar IntersectionExampleScenario.node[27].veinsmobility 	startTime 	84.75
scalar IntersectionExampleScenario.node[27].veinsmobility 	totalTime 	40
scalar IntersectionExampleScenario.node[27].veinsmobility 	stopTime 	125
scalar IntersectionExampleScenario.node[27].veinsmobility 	minSpeed 	5.6500000953674
scalar IntersectionExampleScenario.node[27].veinsmobility 	maxSpeed 	15.02499961853
scalar IntersectionExampleScenario.node[27].veinsmobility 	totalDistance 	553.01731109619
scalar IntersectionExampleScenario.node[27].veinsmobility 	totalCO2Emission 	114.18256448094
scalar IntersectionExampleScenario.node[25].appl 	VehicleRemoved 	0
scalar IntersectionExampleScenario.node[25].appl 	ArrivedAtDest 	1
scalar IntersectionExampleScenario.node[25].appl 	IntersectionEnterTime 	76.25
scalar IntersectionExampleScenario.node[25].appl 	IntersectionExitTime 	112.51033315167
scalar IntersectionExampleScenario.node[25].appl 	NumberOfCollisions 	0
scalar IntersectionExampleScenario.node[25].nic.phy80211p 	busyTime 	0
scalar IntersectionExampleScenario.node[25].nic.mac1609_4 	ReceivedUnicastPackets 	0
scalar IntersectionExampleScenario.node[25].nic.mac1609_4 	ReceivedBroadcasts 	0
scalar IntersectionExampleScenario.node[25].nic.mac1609_4 	SentPackets 	0
scalar IntersectionExampleScenario.node[25].nic.mac1609_4 	SNIRLostPackets 	0
scalar IntersectionExampleScenario.node[25].nic.mac1609_4 	RXTXLostPackets 	0
scalar IntersectionExampleScenario.node[25].nic.mac1609_4 	TotalLostPackets 	0
scalar IntersectionExampleScenario.node[25].nic.mac1609_4 	DroppedPacketsInMac 	0
scalar IntersectionExampleScenario.node[25].nic.mac1609_4 	TooLittleTime 	0
scalar IntersectionExampleScenario.node[25].nic.mac1609_4 	TimesIntoBackoff 	0
scalar IntersectionExampleScenario.node[25].nic.mac1609_4 	SlotsBackoff 	0
scalar IntersectionExampleScenario.node[25].nic.mac1609_4 	NumInternalContention 	0
scalar IntersectionExampleScenario.node[25].nic.mac1609_4 	totalBusyTime 	0
scalar IntersectionExampleScenario.node[25].veinsmobility 	startTime 	76.25
scalar IntersectionExampleScenario.node[25].veinsmobility 	totalTime 	52.75
scalar IntersectionExampleScenario.node[25].veinsmobility 	stopTime 	129.25
scalar IntersectionExampleScenario.node[25].veinsmobility 	minSpeed 	0
scalar IntersectionExampleScenario.node[25].veinsmobility 	maxSpeed 	15.64999961853
scalar IntersectionExampleScenario.node[25].veinsmobility 	totalDistance 	552.85045529754
scalar IntersectionExampleScenario.node[25].veinsmobility 	totalCO2Emission 	147.8904696799
scalar IntersectionExampleScenario.node[30].appl 	VehicleRemoved 	0
scalar IntersectionExampleScenario.node[30].appl 	ArrivedAtDest 	1
scalar IntersectionExampleScenario.node[30].appl 	IntersectionEnterTime 	90
scalar IntersectionExampleScenario.node[30].appl 	IntersectionExitTime 	115.5948687265
scalar IntersectionExampleScenario.node[30].appl 	NumberOfCollisions 	0
scalar IntersectionExampleScenario.node[30].nic.phy80211p 	busyTime 	0
scalar IntersectionExampleScenario.node[30].nic.mac1609_4 	ReceivedUnicastPackets 	0
scalar IntersectionExampleScenario.node[30].nic.mac1609_4 	ReceivedBroadcasts 	0
scalar IntersectionExampleScenario.node[30].nic.mac1609_4 	SentPackets 	0
scalar IntersectionExampleScenario.node[30].nic.mac1609_4 	SNIRLostPackets 	0
scalar IntersectionExampleScenario.node[30].nic.mac1609_4 	RXTXLostPackets 	0
scalar IntersectionExampleScenario.node[30].nic.mac1609_4 	TotalLostPackets 	0
scalar IntersectionExampleScenario.node[30].nic.mac1609_4 	DroppedPacketsInMac 	0
scalar IntersectionExampleScenario.node[30].nic.mac1609_4 	TooLittleTime 	0
scalar IntersectionExampleScenario.node[30].nic.mac1609_4 	TimesIntoBackoff 	0
scalar IntersectionExampleScenario.node[30].nic.mac1609_4 	SlotsBackoff 	0
scalar IntersectionExampleScenario.node[30].nic.mac1609_4 	NumInternalContention 	0
scalar IntersectionExampleScenario.node[30].nic.mac1609_4 	totalBusyTime 	0
scalar IntersectionExampleScenario.node[30].veinsmobility 	startTime 	90
scalar IntersectionExampleScenario.node[30].veinsmobility 	totalTime 	41.75
scalar IntersectionExampleScenario.node[30].veinsmobility 	stopTime 	132
scalar IntersectionExampleScenario.node[30].veinsmobility 	minSpeed 	5.6500000953674
scalar IntersectionExampleScenario.node[30].veinsmobility 	maxSpeed 	15.5
scalar IntersectionExampleScenario.node[30].veinsmobility 	totalDistance 	552.00123596191
scalar IntersectionExampleScenario.node[30].veinsmobility 	totalCO2Emission 	131.02870934516
scalar IntersectionExampleScenario.node[33].appl 	VehicleRemoved 	0
scalar IntersectionExampleScenario.node[33].appl 	ArrivedAtDest 	1
scalar IntersectionExampleScenario.node[33].appl 	IntersectionEnterTime 	93.5
scalar IntersectionExampleScenario.node[33].appl 	IntersectionExitTime 	116.80451495229
scalar IntersectionExampleScenario.node[33].appl 	NumberOfCollisions 	0
scalar IntersectionExampleScenario.node[33].nic.phy80211p 	busyTime 	0
scalar IntersectionExampleScenario.node[33].nic.mac1609_4 	ReceivedUnicastPackets 	0
scalar IntersectionExampleScenario.node[33].nic.mac1609_4 	ReceivedBroadcasts 	0
scalar IntersectionExampleScenario.node[33].nic.mac1609_4 	SentPackets 	0
scalar IntersectionExampleScenario.node[33].nic.mac1609_4 	SNIRLostPackets 	0
scalar IntersectionExampleScenario.node[33].nic.mac1609_4 	RXTXLostPackets 	0
scalar IntersectionExampleScenario.node[33].nic.mac1609_4 	TotalLostPackets 	0
scalar IntersectionExampleScenario.node[33].nic.mac1609_4 	DroppedPacketsInMac 	0
scalar IntersectionExampleScenario.node[33].nic.mac1609_4 	TooLittleTime 	0
scalar IntersectionExampleScenario.node[33].nic.mac1609_4 	TimesIntoBackoff 	0
scalar IntersectionExampleScenario.node[33].nic.mac1609_4 	SlotsBackoff 	0
scalar IntersectionExampleScenario.node[33].nic.mac1609_4 	NumInternalContention 	0
scalar IntersectionExampleScenario.node[33].nic.mac1609_4 	totalBusyTime 	0
scalar IntersectionExampleScenario.node[33].veinsmobility 	startTime 	93.5
scalar IntersectionExampleScenario.node[33].veinsmobility 	totalTime 	39.5
scalar IntersectionExampleScenario.node[33].veinsmobility 	stopTime 	133.25
scalar IntersectionExampleScenario.node[33].veinsmobility 	minSpeed 	5.6500000953674
scalar IntersectionExampleScenario.node[33].veinsmobility 	maxSpeed 	15.64999961853
scalar IntersectionExampleScenario.node[33].veinsmobility 	totalDistance 	549.74300412549
scalar IntersectionExampleScenario.node[33].veinsmobility 	totalCO2Emission 	122.48462072709
scalar IntersectionExampleScenario.node[31].appl 	VehicleRemoved 	0
scalar IntersectionExampleScenario.node[31].appl 	ArrivedAtDest 	1
scalar IntersectionExampleScenario.node[31].appl 	IntersectionEnterTime 	91.25
scalar IntersectionExampleScenario.node[31].appl 	IntersectionExitTime 	118.11257387855
scalar IntersectionExampleScenario.node[31].appl 	NumberOfCollisions 	0
scalar IntersectionExampleScenario.node[31].nic.phy80211p 	busyTime 	0
scalar IntersectionExampleScenario.node[31].nic.mac1609_4 	ReceivedUnicastPackets 	0
scalar IntersectionExampleScenario.node[31].nic.mac1609_4 	ReceivedBroadcasts 	0
scalar IntersectionExampleScenario.node[31].nic.mac1609_4 	SentPackets 	0
scalar IntersectionExampleScenario.node[31].nic.mac1609_4 	SNIRLostPackets 	0
scalar IntersectionExampleScenario.node[31].nic.mac1609_4 	RXTXLostPackets 	0
scalar IntersectionExampleScenario.node[31].nic.mac1609_4 	TotalLostPackets 	0
scalar IntersectionExampleScenario.node[31].nic.mac1609_4 	DroppedPacketsInMac 	0
scalar IntersectionExampleScenario.node[31].nic.mac1609_4 	TooLittleTime 	0
scalar IntersectionExampleScenario.node[31].nic.mac1609_4 	TimesIntoBackoff 	0
scalar IntersectionExampleScenario.node[31].nic.mac1609_4 	SlotsBackoff 	0
scalar IntersectionExampleScenario.node[31].nic.mac1609_4 	NumInternalContention 	0
scalar IntersectionExampleScenario.node[31].nic.mac1609_4 	totalBusyTime 	0
scalar IntersectionExampleScenario.node[31].veinsmobility 	startTime 	91.25
scalar IntersectionExampleScenario.node[31].veinsmobility 	totalTime 	43.25
scalar IntersectionExampleScenario.node[31].veinsmobility 	stopTime 	134.75
scalar IntersectionExampleScenario.node[31].veinsmobility 	minSpeed 	5.6500000953674
scalar IntersectionExampleScenario.node[31].veinsmobility 	maxSpeed 	15.623954772949
scalar IntersectionExampleScenario.node[31].veinsmobility 	totalDistance 	566.19776443503
scalar IntersectionExampleScenario.node[31].veinsmobility 	totalCO2Emission 	147.43086389803
scalar IntersectionExampleScenario.node[34].appl 	VehicleRemoved 	0
scalar IntersectionExampleScenario.node[34].appl 	ArrivedAtDest 	1
scalar IntersectionExampleScenario.node[34].appl 	IntersectionEnterTime 	98.25
scalar IntersectionExampleScenario.node[34].appl 	IntersectionExitTime 	121.82286083186
scalar IntersectionExampleScenario.node[34].appl 	NumberOfCollisions 	0
scalar IntersectionExampleScenario.node[34].nic.phy80211p 	busyTime 	0
scalar IntersectionExampleScenario.node[34].nic.mac1609_4 	ReceivedUnicastPackets 	0
scalar IntersectionExampleScenario.node[34].nic.mac1609_4 	ReceivedBroadcasts 	0
scalar IntersectionExampleScenario.node[34].nic.mac1609_4 	SentPackets 	0
scalar IntersectionExampleScenario.node[34].nic.mac1609_4 	SNIRLostPackets 	0
scalar IntersectionExampleScenario.node[34].nic.mac1609_4 	RXTXLostPackets 	0
scalar IntersectionExampleScenario.node[34].nic.mac1609_4 	TotalLostPackets 	0
scalar IntersectionExampleScenario.node[34].nic.mac1609_4 	DroppedPacketsInMac 	0
scalar IntersectionExampleScenario.node[34].nic.mac1609_4 	TooLittleTime 	0
scalar IntersectionExampleScenario.node[34].nic.mac1609_4 	TimesIntoBackoff 	0
scalar IntersectionExampleScenario.node[34].nic.mac1609_4 	SlotsBackoff 	0
scalar IntersectionExampleScenario.node[34].nic.mac1609_4 	NumInternalContention 	0
scalar IntersectionExampleScenario.node[34].nic.mac1609_4 	totalBusyTime 	0
scalar IntersectionExampleScenario.node[34].veinsmobility 	startTime 	98.25
scalar IntersectionExampleScenario.node[34].veinsmobility 	totalTime 	40.25
scalar IntersectionExampleScenario.node[34].veinsmobility 	stopTime 	138.75
scalar IntersectionExampleScenario.node[34].veinsmobility 	minSpeed 	5.6500000953674
scalar IntersectionExampleScenario.node[34].veinsmobility 	maxSpeed 	15.64999961853
scalar IntersectionExampleScenario.node[34].veinsmobility 	totalDistance 	545.08018277722
scalar IntersectionExampleScenario.node[34].veinsmobility 	totalCO2Emission 	126.35818806262
scalar IntersectionExampleScenario.node[29].appl 	VehicleRemoved 	0
scalar IntersectionExampleScenario.node[29].appl 	ArrivedAtDest 	1
scalar IntersectionExampleScenario.node[29].appl 	IntersectionEnterTime 	90
scalar IntersectionExampleScenario.node[29].appl 	IntersectionExitTime 	128.36315511053
scalar IntersectionExampleScenario.node[29].appl 	NumberOfCollisions 	0
scalar IntersectionExampleScenario.node[29].nic.phy80211p 	busyTime 	0
scalar IntersectionExampleScenario.node[29].nic.mac1609_4 	ReceivedUnicastPackets 	0
scalar IntersectionExampleScenario.node[29].nic.mac1609_4 	ReceivedBroadcasts 	0
scalar IntersectionExampleScenario.node[29].nic.mac1609_4 	SentPackets 	0
scalar IntersectionExampleScenario.node[29].nic.mac1609_4 	SNIRLostPackets 	0
scalar IntersectionExampleScenario.node[29].nic.mac1609_4 	RXTXLostPackets 	0
scalar IntersectionExampleScenario.node[29].nic.mac1609_4 	TotalLostPackets 	0
scalar IntersectionExampleScenario.node[29].nic.mac1609_4 	DroppedPacketsInMac 	0
scalar IntersectionExampleScenario.node[29].nic.mac1609_4 	TooLittleTime 	0
scalar IntersectionExampleScenario.node[29].nic.mac1609_4 	TimesIntoBackoff 	0
scalar IntersectionExampleScenario.node[29].nic.mac1609_4 	SlotsBackoff 	0
scalar IntersectionExampleScenario.node[29].nic.mac1609_4 	NumInternalContention 	0
scalar IntersectionExampleScenario.node[29].nic.mac1609_4 	totalBusyTime 	0
scalar IntersectionExampleScenario.node[29].veinsmobility 	startTime 	90
scalar IntersectionExampleScenario.node[29].veinsmobility 	totalTime 	54.5
scalar IntersectionExampleScenario.node[29].veinsmobility 	stopTime 	144.75
scalar IntersectionExampleScenario.node[29].veinsmobility 	minSpeed 	0
scalar IntersectionExampleScenario.node[29].veinsmobility 	maxSpeed 	15.375
scalar IntersectionExampleScenario.node[29].veinsmobility 	totalDistance 	552.79933166504
scalar IntersectionExampleScenario.node[29].veinsmobility 	totalCO2Emission 	145.85148001181
scalar IntersectionExampleScenario.node[28].appl 	VehicleRemoved 	0
scalar IntersectionExampleScenario.node[28].appl 	ArrivedAtDest 	1
scalar IntersectionExampleScenario.node[28].appl 	IntersectionEnterTime 	89.25
scalar IntersectionExampleScenario.node[28].appl 	IntersectionExitTime 	128.34253943339
scalar IntersectionExampleScenario.node[28].appl 	NumberOfCollisions 	0
scalar IntersectionExampleScenario.node[28].nic.phy80211p 	busyTime 	0
scalar IntersectionExampleScenario.node[28].nic.mac1609_4 	ReceivedUnicastPackets 	0
scalar IntersectionExampleScenario.node[28].nic.mac1609_4 	ReceivedBroadcasts 	0
scalar IntersectionExampleScenario.node[28].nic.mac1609_4 	SentPackets 	0
scalar IntersectionExampleScenario.node[28].nic.mac1609_4 	SNIRLostPackets 	0
scalar IntersectionExampleScenario.node[28].nic.mac1609_4 	RXTXLostPackets 	0
scalar IntersectionExampleScenario.node[28].nic.mac1609_4 	TotalLostPackets 	0
scalar IntersectionExampleScenario.node[28].nic.mac1609_4 	DroppedPacketsInMac 	0
scalar IntersectionExampleScenario.node[28].nic.mac1609_4 	TooLittleTime 	0
scalar IntersectionExampleScenario.node[28].nic.mac1609_4 	TimesIntoBackoff 	0
scalar IntersectionExampleScenario.node[28].nic.mac1609_4 	SlotsBackoff 	0
scalar IntersectionExampleScenario.node[28].nic.mac1609_4 	NumInternalContention 	0
scalar IntersectionExampleScenario.node[28].nic.mac1609_4 	totalBusyTime 	0
scalar IntersectionExampleScenario.node[28].veinsmobility 	startTime 	89.25
scalar IntersectionExampleScenario.node[28].veinsmobility 	totalTime 	55.25
scalar IntersectionExampleScenario.node[28].veinsmobility 	stopTime 	144.75
scalar IntersectionExampleScenario.node[28].veinsmobility 	minSpeed 	0
scalar IntersectionExampleScenario.node[28].veinsmobility 	maxSpeed 	15.375
scalar IntersectionExampleScenario.node[28].veinsmobility 	totalDistance 	551.64493560791
scalar IntersectionExampleScenario.node[28].veinsmobility 	totalCO2Emission 	146.41275121707
scalar IntersectionExampleScenario.node[32].appl 	VehicleRemoved 	0
scalar IntersectionExampleScenario.node[32].appl 	ArrivedAtDest 	1
scalar IntersectionExampleScenario.node[32].appl 	IntersectionEnterTime 	92.5
scalar IntersectionExampleScenario.node[32].appl 	IntersectionExitTime 	129.30174869942
scalar IntersectionExampleScenario.node[32].appl 	NumberOfCollisions 	0
scalar IntersectionExampleScenario.node[32].nic.phy80211p 	busyTime 	0
scalar IntersectionExampleScenario.node[32].nic.mac1609_4 	ReceivedUnicastPackets 	0
scalar IntersectionExampleScenario.node[32].nic.mac1609_4 	ReceivedBroadcasts 	0
scalar IntersectionExampleScenario.node[32].nic.mac1609_4 	SentPackets 	0
scalar IntersectionExampleScenario.node[32].nic.mac1609_4 	SNIRLostPackets 	0
scalar IntersectionExampleScenario.node[32].nic.mac1609_4 	RXTXLostPackets 	0
scalar IntersectionExampleScenario.node[32].nic.mac1609_4 	TotalLostPackets 	0
scalar IntersectionExampleScenario.node[32].nic.mac1609_4 	DroppedPacketsInMac 	0
scalar IntersectionExampleScenario.node[32].nic.mac1609_4 	TooLittleTime 	0
scalar IntersectionExampleScenario.node[32].nic.mac1609_4 	TimesIntoBackoff 	0
scalar IntersectionExampleScenario.node[32].nic.mac1609_4 	SlotsBackoff 	0
scalar IntersectionExampleScenario.node[32].nic.mac1609_4 	NumInternalContention 	0
scalar IntersectionExampleScenario.node[32].nic.mac1609_4 	totalBusyTime 	0
scalar IntersectionExampleScenario.node[32].veinsmobility 	startTime 	92.5
scalar IntersectionExampleScenario.node[32].veinsmobility 	totalTime 	52.75
scalar IntersectionExampleScenario.node[32].veinsmobility 	stopTime 	145.5
scalar IntersectionExampleScenario.node[32].veinsmobility 	minSpeed 	0
scalar IntersectionExampleScenario.node[32].veinsmobility 	maxSpeed 	16
scalar IntersectionExampleScenario.node[32].veinsmobility 	totalDistance 	561.65946587504
scalar IntersectionExampleScenario.node[32].veinsmobility 	totalCO2Emission 	149.82025288873
scalar IntersectionExampleScenario.node[36].appl 	VehicleRemoved 	0
scalar IntersectionExampleScenario.node[36].appl 	ArrivedAtDest 	1
scalar IntersectionExampleScenario.node[36].appl 	IntersectionEnterTime 	107
scalar IntersectionExampleScenario.node[36].appl 	IntersectionExitTime 	131.79075926074
scalar IntersectionExampleScenario.node[36].appl 	NumberOfCollisions 	0
scalar IntersectionExampleScenario.node[36].nic.phy80211p 	busyTime 	0
scalar IntersectionExampleScenario.node[36].nic.mac1609_4 	ReceivedUnicastPackets 	0
scalar IntersectionExampleScenario.node[36].nic.mac1609_4 	ReceivedBroadcasts 	0
scalar IntersectionExampleScenario.node[36].nic.mac1609_4 	SentPackets 	0
scalar IntersectionExampleScenario.node[36].nic.mac1609_4 	SNIRLostPackets 	0
scalar IntersectionExampleScenario.node[36].nic.mac1609_4 	RXTXLostPackets 	0
scalar IntersectionExampleScenario.node[36].nic.mac1609_4 	TotalLostPackets 	0
scalar IntersectionExampleScenario.node[36].nic.mac1609_4 	DroppedPacketsInMac 	0
scalar IntersectionExampleScenario.node[36].nic.mac1609_4 	TooLittleTime 	0
scalar IntersectionExampleScenario.node[36].nic.mac1609_4 	TimesIntoBackoff 	0
scalar IntersectionExampleScenario.node[36].nic.mac1609_4 	SlotsBackoff 	0
scalar IntersectionExampleScenario.node[36].nic.mac1609_4 	NumInternalContention 	0
scalar IntersectionExampleScenario.node[36].nic.mac1609_4 	totalBusyTime 	0
scalar IntersectionExampleScenario.node[36].veinsmobility 	startTime 	107
scalar IntersectionExampleScenario.node[36].veinsmobility 	totalTime 	41.25
scalar IntersectionExampleScenario.node[36].veinsmobility 	stopTime 	148.5
scalar IntersectionExampleScenario.node[36].veinsmobility 	minSpeed 	5.6500000953674
scalar IntersectionExampleScenario.node[36].veinsmobility 	maxSpeed 	15.02499961853
scalar IntersectionExampleScenario.node[36].veinsmobility 	totalDistance 	551.94864654541
scalar IntersectionExampleScenario.node[36].veinsmobility 	totalCO2Emission 	128.15489805198
scalar IntersectionExampleScenario.node[38].appl 	VehicleRemoved 	0
scalar IntersectionExampleScenario.node[38].appl 	ArrivedAtDest 	1
scalar IntersectionExampleScenario.node[38].appl 	IntersectionEnterTime 	113.75
scalar IntersectionExampleScenario.node[38].appl 	IntersectionExitTime 	136.51568015831
scalar IntersectionExampleScenario.node[38].appl 	NumberOfCollisions 	0
scalar IntersectionExampleScenario.node[38].nic.phy80211p 	busyTime 	0
scalar IntersectionExampleScenario.node[38].nic.mac1609_4 	ReceivedUnicastPackets 	0
scalar IntersectionExampleScenario.node[38].nic.mac1609_4 	ReceivedBroadcasts 	0
scalar IntersectionExampleScenario.node[38].nic.mac1609_4 	SentPackets 	0
scalar IntersectionExampleScenario.node[38].nic.mac1609_4 	SNIRLostPackets 	0
scalar IntersectionExampleScenario.node[38].nic.mac1609_4 	RXTXLostPackets 	0
scalar IntersectionExampleScenario.node[38].nic.mac1609_4 	TotalLostPackets 	0
scalar IntersectionExampleScenario.node[38].nic.mac1609_4 	DroppedPacketsInMac 	0
scalar IntersectionExampleScenario.node[38].nic.mac1609_4 	TooLittleTime 	0
scalar IntersectionExampleScenario.node[38].nic.mac1609_4 	TimesIntoBackoff 	0
scalar IntersectionExampleScenario.node[38].nic.mac1609_4 	SlotsBackoff 	0
scalar IntersectionExampleScenario.node[38].nic.mac1609_4 	NumInternalContention 	0
scalar IntersectionExampleScenario.node[38].nic.mac1609_4 	totalBusyTime 	0
scalar IntersectionExampleScenario.node[38].veinsmobility 	startTime 	113.75
scalar IntersectionExampleScenario.node[38].veinsmobility 	totalTime 	38.75
scalar IntersectionExampleScenario.node[38].veinsmobility 	stopTime 	152.75
scalar IntersectionExampleScenario.node[38].veinsmobility 	minSpeed 	5.6500000953674
scalar IntersectionExampleScenario.node[38].veinsmobility 	maxSpeed 	15.41296005249
scalar IntersectionExampleScenario.node[38].veinsmobility 	totalDistance 	554.57968902588
scalar IntersectionExampleScenario.node[38].veinsmobility 	totalCO2Emission 	118.32570219294
scalar IntersectionExampleScenario.node[39].appl 	VehicleRemoved 	0
scalar IntersectionExampleScenario.node[39].appl 	ArrivedAtDest 	1
scalar IntersectionExampleScenario.node[39].appl 	IntersectionEnterTime 	118.5
scalar IntersectionExampleScenario.node[39].appl 	IntersectionExitTime 	140.81153721313
scalar IntersectionExampleScenario.node[39].appl 	NumberOfCollisions 	0
scalar IntersectionExampleScenario.node[39].nic.phy80211p 	busyTime 	0
scalar IntersectionExampleScenario.node[39].nic.mac1609_4 	ReceivedUnicastPackets 	0
scalar IntersectionExampleScenario.node[39].nic.mac1609_4 	ReceivedBroadcasts 	0
scalar IntersectionExampleScenario.node[39].nic.mac1609_4 	SentPackets 	0
scalar IntersectionExampleScenario.node[39].nic.mac1609_4 	SNIRLostPackets 	0
scalar IntersectionExampleScenario.node[39].nic.mac1609_4 	RXTXLostPackets 	0
scalar IntersectionExampleScenario.node[39].nic.mac1609_4 	TotalLostPackets 	0
scalar IntersectionExampleScenario.node[39].nic.mac1609_4 	DroppedPacketsInMac 	0
scalar IntersectionExampleScenario.node[39].nic.mac1609_4 	TooLittleTime 	0
scalar IntersectionExampleScenario.node[39].nic.mac1609_4 	TimesIntoBackoff 	0
scalar IntersectionExampleScenario.node[39].nic.mac1609_4 	SlotsBackoff 	0
scalar IntersectionExampleScenario.node[39].nic.mac1609_4 	NumInternalContention 	0
scalar IntersectionExampleScenario.node[39].nic.mac1609_4 	totalBusyTime 	0
scalar IntersectionExampleScenario.node[39].veinsmobility 	startTime 	118.5
scalar IntersectionExampleScenario.node[39].veinsmobility 	totalTime 	37.5
scalar IntersectionExampleScenario.node[39].veinsmobility 	stopTime 	156.25
scalar IntersectionExampleScenario.node[39].veinsmobility 	minSpeed 	5.6500000953674
scalar IntersectionExampleScenario.node[39].veinsmobility 	maxSpeed 	16.89999961853
scalar IntersectionExampleScenario.node[39].veinsmobility 	totalDistance 	548.40759789746
scalar IntersectionExampleScenario.node[39].veinsmobility 	totalCO2Emission 	129.95399622058
scalar IntersectionExampleScenario.node[37].appl 	VehicleRemoved 	0
scalar IntersectionExampleScenario.node[37].appl 	ArrivedAtDest 	1
scalar IntersectionExampleScenario.node[37].appl 	IntersectionEnterTime 	111.5
scalar IntersectionExampleScenario.node[37].appl 	IntersectionExitTime 	144.35042654449
scalar IntersectionExampleScenario.node[37].appl 	NumberOfCollisions 	0
scalar IntersectionExampleScenario.node[37].nic.phy80211p 	busyTime 	0
scalar IntersectionExampleScenario.node[37].nic.mac1609_4 	ReceivedUnicastPackets 	0
scalar IntersectionExampleScenario.node[37].nic.mac1609_4 	ReceivedBroadcasts 	0
scalar IntersectionExampleScenario.node[37].nic.mac1609_4 	SentPackets 	0
scalar IntersectionExampleScenario.node[37].nic.mac1609_4 	SNIRLostPackets 	0
scalar IntersectionExampleScenario.node[37].nic.mac1609_4 	RXTXLostPackets 	0
scalar IntersectionExampleScenario.node[37].nic.mac1609_4 	TotalLostPackets 	0
scalar IntersectionExampleScenario.node[37].nic.mac1609_4 	DroppedPacketsInMac 	0
scalar IntersectionExampleScenario.node[37].nic.mac1609_4 	TooLittleTime 	0
scalar IntersectionExampleScenario.node[37].nic.mac1609_4 	TimesIntoBackoff 	0
scalar IntersectionExampleScenario.node[37].nic.mac1609_4 	SlotsBackoff 	0
scalar IntersectionExampleScenario.node[37].nic.mac1609_4 	NumInternalContention 	0
scalar IntersectionExampleScenario.node[37].nic.mac1609_4 	totalBusyTime 	0
scalar IntersectionExampleScenario.node[37].veinsmobility 	startTime 	111.5
scalar IntersectionExampleScenario.node[37].veinsmobility 	totalTime 	48.75
scalar IntersectionExampleScenario.node[37].veinsmobility 	stopTime 	160.5
scalar IntersectionExampleScenario.node[37].veinsmobility 	minSpeed 	0
scalar IntersectionExampleScenario.node[37].veinsmobility 	maxSpeed 	15.64999961853
scalar IntersectionExampleScenario.node[37].veinsmobility 	totalDistance 	553.61808013916
scalar IntersectionExampleScenario.node[37].veinsmobility 	totalCO2Emission 	141.73056828446
scalar IntersectionExampleScenario.node[35].appl 	VehicleRemoved 	0
scalar IntersectionExampleScenario.node[35].appl 	ArrivedAtDest 	1
scalar IntersectionExampleScenario.node[35].appl 	IntersectionEnterTime 	104.75
scalar IntersectionExampleScenario.node[35].appl 	IntersectionExitTime 	144.35775991576
scalar IntersectionExampleScenario.node[35].appl 	NumberOfCollisions 	0
scalar IntersectionExampleScenario.node[35].nic.phy80211p 	busyTime 	0
scalar IntersectionExampleScenario.node[35].nic.mac1609_4 	ReceivedUnicastPackets 	0
scalar IntersectionExampleScenario.node[35].nic.mac1609_4 	ReceivedBroadcasts 	0
scalar IntersectionExampleScenario.node[35].nic.mac1609_4 	SentPackets 	0
scalar IntersectionExampleScenario.node[35].nic.mac1609_4 	SNIRLostPackets 	0
scalar IntersectionExampleScenario.node[35].nic.mac1609_4 	RXTXLostPackets 	0
scalar IntersectionExampleScenario.node[35].nic.mac1609_4 	TotalLostPackets 	0
scalar IntersectionExampleScenario.node[35].nic.mac1609_4 	DroppedPacketsInMac 	0
scalar IntersectionExampleScenario.node[35].nic.mac1609_4 	TooLittleTime 	0
[...]
scalar IntersectionExampleScenario.node[565].veinsmobility 	totalCO2Emission 	79.23583323467
scalar IntersectionExampleScenario.node[566].appl 	VehicleRemoved 	0
scalar IntersectionExampleScenario.node[566].appl 	ArrivedAtDest 	0
scalar IntersectionExampleScenario.node[566].appl 	IntersectionEnterTime 	1776.25
scalar IntersectionExampleScenario.node[566].appl 	IntersectionExitTime 	-1
scalar IntersectionExampleScenario.node[566].appl 	NumberOfCollisions 	0
scalar IntersectionExampleScenario.node[566].nic.phy80211p 	busyTime 	0
scalar IntersectionExampleScenario.node[566].nic.mac1609_4 	ReceivedUnicastPackets 	0
scalar IntersectionExampleScenario.node[566].nic.mac1609_4 	ReceivedBroadcasts 	0
scalar IntersectionExampleScenario.node[566].nic.mac1609_4 	SentPackets 	0
scalar IntersectionExampleScenario.node[566].nic.mac1609_4 	SNIRLostPackets 	0
scalar IntersectionExampleScenario.node[566].nic.mac1609_4 	RXTXLostPackets 	0
scalar IntersectionExampleScenario.node[566].nic.mac1609_4 	TotalLostPackets 	0
scalar IntersectionExampleScenario.node[566].nic.mac1609_4 	DroppedPacketsInMac 	0
scalar IntersectionExampleScenario.node[566].nic.mac1609_4 	TooLittleTime 	0
scalar IntersectionExampleScenario.node[566].nic.mac1609_4 	TimesIntoBackoff 	0
scalar IntersectionExampleScenario.node[566].nic.mac1609_4 	SlotsBackoff 	0
scalar IntersectionExampleScenario.node[566].nic.mac1609_4 	NumInternalContention 	0
scalar IntersectionExampleScenario.node[566].nic.mac1609_4 	totalBusyTime 	0
scalar IntersectionExampleScenario.node[566].veinsmobility 	startTime 	1776.25
scalar IntersectionExampleScenario.node[566].veinsmobility 	totalTime 	23.75
scalar IntersectionExampleScenario.node[566].veinsmobility 	stopTime 	1800
scalar IntersectionExampleScenario.node[566].veinsmobility 	minSpeed 	4.0561180114746
scalar IntersectionExampleScenario.node[566].veinsmobility 	maxSpeed 	16.27499961853
scalar IntersectionExampleScenario.node[566].veinsmobility 	totalDistance 	274.11743164062
scalar IntersectionExampleScenario.node[566].veinsmobility 	totalCO2Emission 	69.637620542522
scalar IntersectionExampleScenario.node[567].appl 	VehicleRemoved 	0
scalar IntersectionExampleScenario.node[567].appl 	ArrivedAtDest 	0
scalar IntersectionExampleScenario.node[567].appl 	IntersectionEnterTime 	1778.75
scalar IntersectionExampleScenario.node[567].appl 	IntersectionExitTime 	-1
scalar IntersectionExampleScenario.node[567].appl 	NumberOfCollisions 	0
scalar IntersectionExampleScenario.node[567].nic.phy80211p 	busyTime 	0
scalar IntersectionExampleScenario.node[567].nic.mac1609_4 	ReceivedUnicastPackets 	0
scalar IntersectionExampleScenario.node[567].nic.mac1609_4 	ReceivedBroadcasts 	0
scalar IntersectionExampleScenario.node[567].nic.mac1609_4 	SentPackets 	0
scalar IntersectionExampleScenario.node[567].nic.mac1609_4 	SNIRLostPackets 	0
scalar IntersectionExampleScenario.node[567].nic.mac1609_4 	RXTXLostPackets 	0
scalar IntersectionExampleScenario.node[567].nic.mac1609_4 	TotalLostPackets 	0
scalar IntersectionExampleScenario.node[567].nic.mac1609_4 	DroppedPacketsInMac 	0
scalar IntersectionExampleScenario.node[567].nic.mac1609_4 	TooLittleTime 	0
scalar IntersectionExampleScenario.node[567].nic.mac1609_4 	TimesIntoBackoff 	0
scalar IntersectionExampleScenario.node[567].nic.mac1609_4 	SlotsBackoff 	0
scalar IntersectionExampleScenario.node[567].nic.mac1609_4 	NumInternalContention 	0
scalar IntersectionExampleScenario.node[567].nic.mac1609_4 	totalBusyTime 	0
scalar IntersectionExampleScenario.node[567].veinsmobility 	startTime 	1778.75
scalar IntersectionExampleScenario.node[567].veinsmobility 	totalTime 	21.25
scalar IntersectionExampleScenario.node[567].veinsmobility 	stopTime 	1800
scalar IntersectionExampleScenario.node[567].veinsmobility 	minSpeed 	5.3261361122131
scalar IntersectionExampleScenario.node[567].veinsmobility 	maxSpeed 	15.64999961853
scalar IntersectionExampleScenario.node[567].veinsmobility 	totalDistance 	258.30224609375
scalar IntersectionExampleScenario.node[567].veinsmobility 	totalCO2Emission 	65.951610737642
scalar IntersectionExampleScenario.node[568].appl 	VehicleRemoved 	0
scalar IntersectionExampleScenario.node[568].appl 	ArrivedAtDest 	0
scalar IntersectionExampleScenario.node[568].appl 	IntersectionEnterTime 	1779
scalar IntersectionExampleScenario.node[568].appl 	IntersectionExitTime 	-1
scalar IntersectionExampleScenario.node[568].appl 	NumberOfCollisions 	0
scalar IntersectionExampleScenario.node[568].nic.phy80211p 	busyTime 	0
scalar IntersectionExampleScenario.node[568].nic.mac1609_4 	ReceivedUnicastPackets 	0
scalar IntersectionExampleScenario.node[568].nic.mac1609_4 	ReceivedBroadcasts 	0
scalar IntersectionExampleScenario.node[568].nic.mac1609_4 	SentPackets 	0
scalar IntersectionExampleScenario.node[568].nic.mac1609_4 	SNIRLostPackets 	0
scalar IntersectionExampleScenario.node[568].nic.mac1609_4 	RXTXLostPackets 	0
scalar IntersectionExampleScenario.node[568].nic.mac1609_4 	TotalLostPackets 	0
scalar IntersectionExampleScenario.node[568].nic.mac1609_4 	DroppedPacketsInMac 	0
scalar IntersectionExampleScenario.node[568].nic.mac1609_4 	TooLittleTime 	0
scalar IntersectionExampleScenario.node[568].nic.mac1609_4 	TimesIntoBackoff 	0
scalar IntersectionExampleScenario.node[568].nic.mac1609_4 	SlotsBackoff 	0
scalar IntersectionExampleScenario.node[568].nic.mac1609_4 	NumInternalContention 	0
scalar IntersectionExampleScenario.node[568].nic.mac1609_4 	totalBusyTime 	0
scalar IntersectionExampleScenario.node[568].veinsmobility 	startTime 	1779
scalar IntersectionExampleScenario.node[568].veinsmobility 	totalTime 	21
scalar IntersectionExampleScenario.node[568].veinsmobility 	stopTime 	1800
scalar IntersectionExampleScenario.node[568].veinsmobility 	minSpeed 	5.6500000953674
scalar IntersectionExampleScenario.node[568].veinsmobility 	maxSpeed 	15.945484161377
scalar IntersectionExampleScenario.node[568].veinsmobility 	totalDistance 	298.02373504639
scalar IntersectionExampleScenario.node[568].veinsmobility 	totalCO2Emission 	68.538080644527
scalar IntersectionExampleScenario.node[569].appl 	VehicleRemoved 	0
scalar IntersectionExampleScenario.node[569].appl 	ArrivedAtDest 	0
scalar IntersectionExampleScenario.node[569].appl 	IntersectionEnterTime 	1780.25
scalar IntersectionExampleScenario.node[569].appl 	IntersectionExitTime 	-1
scalar IntersectionExampleScenario.node[569].appl 	NumberOfCollisions 	0
scalar IntersectionExampleScenario.node[569].nic.phy80211p 	busyTime 	0
scalar IntersectionExampleScenario.node[569].nic.mac1609_4 	ReceivedUnicastPackets 	0
scalar IntersectionExampleScenario.node[569].nic.mac1609_4 	ReceivedBroadcasts 	0
scalar IntersectionExampleScenario.node[569].nic.mac1609_4 	SentPackets 	0
scalar IntersectionExampleScenario.node[569].nic.mac1609_4 	SNIRLostPackets 	0
scalar IntersectionExampleScenario.node[569].nic.mac1609_4 	RXTXLostPackets 	0
scalar IntersectionExampleScenario.node[569].nic.mac1609_4 	TotalLostPackets 	0
scalar IntersectionExampleScenario.node[569].nic.mac1609_4 	DroppedPacketsInMac 	0
scalar IntersectionExampleScenario.node[569].nic.mac1609_4 	TooLittleTime 	0
scalar IntersectionExampleScenario.node[569].nic.mac1609_4 	TimesIntoBackoff 	0
scalar IntersectionExampleScenario.node[569].nic.mac1609_4 	SlotsBackoff 	0
scalar IntersectionExampleScenario.node[569].nic.mac1609_4 	NumInternalContention 	0
scalar IntersectionExampleScenario.node[569].nic.mac1609_4 	totalBusyTime 	0
scalar IntersectionExampleScenario.node[569].veinsmobility 	startTime 	1780.25
scalar IntersectionExampleScenario.node[569].veinsmobility 	totalTime 	19.75
scalar IntersectionExampleScenario.node[569].veinsmobility 	stopTime 	1800
scalar IntersectionExampleScenario.node[569].veinsmobility 	minSpeed 	5.6500000953674
scalar IntersectionExampleScenario.node[569].veinsmobility 	maxSpeed 	15.64999961853
scalar IntersectionExampleScenario.node[569].veinsmobility 	totalDistance 	256.19089508057
scalar IntersectionExampleScenario.node[569].veinsmobility 	totalCO2Emission 	68.712011409939
scalar IntersectionExampleScenario.node[570].appl 	VehicleRemoved 	0
scalar IntersectionExampleScenario.node[570].appl 	ArrivedAtDest 	0
scalar IntersectionExampleScenario.node[570].appl 	IntersectionEnterTime 	1782.5
scalar IntersectionExampleScenario.node[570].appl 	IntersectionExitTime 	-1
scalar IntersectionExampleScenario.node[570].appl 	NumberOfCollisions 	0
scalar IntersectionExampleScenario.node[570].nic.phy80211p 	busyTime 	0
scalar IntersectionExampleScenario.node[570].nic.mac1609_4 	ReceivedUnicastPackets 	0
scalar IntersectionExampleScenario.node[570].nic.mac1609_4 	ReceivedBroadcasts 	0
scalar IntersectionExampleScenario.node[570].nic.mac1609_4 	SentPackets 	0
scalar IntersectionExampleScenario.node[570].nic.mac1609_4 	SNIRLostPackets 	0
scalar IntersectionExampleScenario.node[570].nic.mac1609_4 	RXTXLostPackets 	0
scalar IntersectionExampleScenario.node[570].nic.mac1609_4 	TotalLostPackets 	0
scalar IntersectionExampleScenario.node[570].nic.mac1609_4 	DroppedPacketsInMac 	0
scalar IntersectionExampleScenario.node[570].nic.mac1609_4 	TooLittleTime 	0
scalar IntersectionExampleScenario.node[570].nic.mac1609_4 	TimesIntoBackoff 	0
scalar IntersectionExampleScenario.node[570].nic.mac1609_4 	SlotsBackoff 	0
scalar IntersectionExampleScenario.node[570].nic.mac1609_4 	NumInternalContention 	0
scalar IntersectionExampleScenario.node[570].nic.mac1609_4 	totalBusyTime 	0
scalar IntersectionExampleScenario.node[570].veinsmobility 	startTime 	1782.5
scalar IntersectionExampleScenario.node[570].veinsmobility 	totalTime 	17.5
scalar IntersectionExampleScenario.node[570].veinsmobility 	stopTime 	1800
scalar IntersectionExampleScenario.node[570].veinsmobility 	minSpeed 	5.6500000953674
scalar IntersectionExampleScenario.node[570].veinsmobility 	maxSpeed 	15.720875740051
scalar IntersectionExampleScenario.node[570].veinsmobility 	totalDistance 	242.9610824585
scalar IntersectionExampleScenario.node[570].veinsmobility 	totalCO2Emission 	59.747160980489
scalar IntersectionExampleScenario.node[571].appl 	VehicleRemoved 	0
scalar IntersectionExampleScenario.node[571].appl 	ArrivedAtDest 	0
scalar IntersectionExampleScenario.node[571].appl 	IntersectionEnterTime 	1783
scalar IntersectionExampleScenario.node[571].appl 	IntersectionExitTime 	-1
scalar IntersectionExampleScenario.node[571].appl 	NumberOfCollisions 	0
scalar IntersectionExampleScenario.node[571].nic.phy80211p 	busyTime 	0
scalar IntersectionExampleScenario.node[571].nic.mac1609_4 	ReceivedUnicastPackets 	0
scalar IntersectionExampleScenario.node[571].nic.mac1609_4 	ReceivedBroadcasts 	0
scalar IntersectionExampleScenario.node[571].nic.mac1609_4 	SentPackets 	0
scalar IntersectionExampleScenario.node[571].nic.mac1609_4 	SNIRLostPackets 	0
scalar IntersectionExampleScenario.node[571].nic.mac1609_4 	RXTXLostPackets 	0
scalar IntersectionExampleScenario.node[571].nic.mac1609_4 	TotalLostPackets 	0
scalar IntersectionExampleScenario.node[571].nic.mac1609_4 	DroppedPacketsInMac 	0
scalar IntersectionExampleScenario.node[571].nic.mac1609_4 	TooLittleTime 	0
scalar IntersectionExampleScenario.node[571].nic.mac1609_4 	TimesIntoBackoff 	0
scalar IntersectionExampleScenario.node[571].nic.mac1609_4 	SlotsBackoff 	0
scalar IntersectionExampleScenario.node[571].nic.mac1609_4 	NumInternalContention 	0
scalar IntersectionExampleScenario.node[571].nic.mac1609_4 	totalBusyTime 	0
scalar IntersectionExampleScenario.node[571].veinsmobility 	startTime 	1783
scalar IntersectionExampleScenario.node[571].veinsmobility 	totalTime 	17
scalar IntersectionExampleScenario.node[571].veinsmobility 	stopTime 	1800
scalar IntersectionExampleScenario.node[571].veinsmobility 	minSpeed 	5.6500000953674
scalar IntersectionExampleScenario.node[571].veinsmobility 	maxSpeed 	15.466596603394
scalar IntersectionExampleScenario.node[571].veinsmobility 	totalDistance 	230.02788543701
scalar IntersectionExampleScenario.node[571].veinsmobility 	totalCO2Emission 	59.113929539171
scalar IntersectionExampleScenario.node[572].appl 	VehicleRemoved 	0
scalar IntersectionExampleScenario.node[572].appl 	ArrivedAtDest 	0
scalar IntersectionExampleScenario.node[572].appl 	IntersectionEnterTime 	1783.5
scalar IntersectionExampleScenario.node[572].appl 	IntersectionExitTime 	-1
scalar IntersectionExampleScenario.node[572].appl 	NumberOfCollisions 	0
scalar IntersectionExampleScenario.node[572].nic.phy80211p 	busyTime 	0
scalar IntersectionExampleScenario.node[572].nic.mac1609_4 	ReceivedUnicastPackets 	0
scalar IntersectionExampleScenario.node[572].nic.mac1609_4 	ReceivedBroadcasts 	0
scalar IntersectionExampleScenario.node[572].nic.mac1609_4 	SentPackets 	0
scalar IntersectionExampleScenario.node[572].nic.mac1609_4 	SNIRLostPackets 	0
scalar IntersectionExampleScenario.node[572].nic.mac1609_4 	RXTXLostPackets 	0
scalar IntersectionExampleScenario.node[572].nic.mac1609_4 	TotalLostPackets 	0
scalar IntersectionExampleScenario.node[572].nic.mac1609_4 	DroppedPacketsInMac 	0
scalar IntersectionExampleScenario.node[572].nic.mac1609_4 	TooLittleTime 	0
scalar IntersectionExampleScenario.node[572].nic.mac1609_4 	TimesIntoBackoff 	0
scalar IntersectionExampleScenario.node[572].nic.mac1609_4 	SlotsBackoff 	0
scalar IntersectionExampleScenario.node[572].nic.mac1609_4 	NumInternalContention 	0
scalar IntersectionExampleScenario.node[572].nic.mac1609_4 	totalBusyTime 	0
scalar IntersectionExampleScenario.node[572].veinsmobility 	startTime 	1783.5
scalar IntersectionExampleScenario.node[572].veinsmobility 	totalTime 	16.5
scalar IntersectionExampleScenario.node[572].veinsmobility 	stopTime 	1800
scalar IntersectionExampleScenario.node[572].veinsmobility 	minSpeed 	5.6500000953674
scalar IntersectionExampleScenario.node[572].veinsmobility 	maxSpeed 	15.64999961853
scalar IntersectionExampleScenario.node[572].veinsmobility 	totalDistance 	234.67779541016
scalar IntersectionExampleScenario.node[572].veinsmobility 	totalCO2Emission 	59.47226363716
scalar IntersectionExampleScenario.node[573].appl 	VehicleRemoved 	0
scalar IntersectionExampleScenario.node[573].appl 	ArrivedAtDest 	0
scalar IntersectionExampleScenario.node[573].appl 	IntersectionEnterTime 	1787.5
scalar IntersectionExampleScenario.node[573].appl 	IntersectionExitTime 	-1
scalar IntersectionExampleScenario.node[573].appl 	NumberOfCollisions 	0
scalar IntersectionExampleScenario.node[573].nic.phy80211p 	busyTime 	0
scalar IntersectionExampleScenario.node[573].nic.mac1609_4 	ReceivedUnicastPackets 	0
scalar IntersectionExampleScenario.node[573].nic.mac1609_4 	ReceivedBroadcasts 	0
scalar IntersectionExampleScenario.node[573].nic.mac1609_4 	SentPackets 	0
scalar IntersectionExampleScenario.node[573].nic.mac1609_4 	SNIRLostPackets 	0
scalar IntersectionExampleScenario.node[573].nic.mac1609_4 	RXTXLostPackets 	0
scalar IntersectionExampleScenario.node[573].nic.mac1609_4 	TotalLostPackets 	0
scalar IntersectionExampleScenario.node[573].nic.mac1609_4 	DroppedPacketsInMac 	0
scalar IntersectionExampleScenario.node[573].nic.mac1609_4 	TooLittleTime 	0
scalar IntersectionExampleScenario.node[573].nic.mac1609_4 	TimesIntoBackoff 	0
scalar IntersectionExampleScenario.node[573].nic.mac1609_4 	SlotsBackoff 	0
scalar IntersectionExampleScenario.node[573].nic.mac1609_4 	NumInternalContention 	0
scalar IntersectionExampleScenario.node[573].nic.mac1609_4 	totalBusyTime 	0
scalar IntersectionExampleScenario.node[573].veinsmobility 	startTime 	1787.5
scalar IntersectionExampleScenario.node[573].veinsmobility 	totalTime 	12.5
scalar IntersectionExampleScenario.node[573].veinsmobility 	stopTime 	1800
scalar IntersectionExampleScenario.node[573].veinsmobility 	minSpeed 	5.6500000953674
scalar IntersectionExampleScenario.node[573].veinsmobility 	maxSpeed 	16.89999961853
scalar IntersectionExampleScenario.node[573].veinsmobility 	totalDistance 	179.34399414062
scalar IntersectionExampleScenario.node[573].veinsmobility 	totalCO2Emission 	55.62628866902
scalar IntersectionExampleScenario.node[574].appl 	VehicleRemoved 	0
scalar IntersectionExampleScenario.node[574].appl 	ArrivedAtDest 	0
scalar IntersectionExampleScenario.node[574].appl 	IntersectionEnterTime 	1788.5
scalar IntersectionExampleScenario.node[574].appl 	IntersectionExitTime 	-1
scalar IntersectionExampleScenario.node[574].appl 	NumberOfCollisions 	0
scalar IntersectionExampleScenario.node[574].nic.phy80211p 	busyTime 	0
scalar IntersectionExampleScenario.node[574].nic.mac1609_4 	ReceivedUnicastPackets 	0
scalar IntersectionExampleScenario.node[574].nic.mac1609_4 	ReceivedBroadcasts 	0
scalar IntersectionExampleScenario.node[574].nic.mac1609_4 	SentPackets 	0
scalar IntersectionExampleScenario.node[574].nic.mac1609_4 	SNIRLostPackets 	0
scalar IntersectionExampleScenario.node[574].nic.mac1609_4 	RXTXLostPackets 	0
scalar IntersectionExampleScenario.node[574].nic.mac1609_4 	TotalLostPackets 	0
scalar IntersectionExampleScenario.node[574].nic.mac1609_4 	DroppedPacketsInMac 	0
scalar IntersectionExampleScenario.node[574].nic.mac1609_4 	TooLittleTime 	0
scalar IntersectionExampleScenario.node[574].nic.mac1609_4 	TimesIntoBackoff 	0
scalar IntersectionExampleScenario.node[574].nic.mac1609_4 	SlotsBackoff 	0
scalar IntersectionExampleScenario.node[574].nic.mac1609_4 	NumInternalContention 	0
scalar IntersectionExampleScenario.node[574].nic.mac1609_4 	totalBusyTime 	0
scalar IntersectionExampleScenario.node[574].veinsmobility 	startTime 	1788.5
scalar IntersectionExampleScenario.node[574].veinsmobility 	totalTime 	11.5
scalar IntersectionExampleScenario.node[574].veinsmobility 	stopTime 	1800
scalar IntersectionExampleScenario.node[574].veinsmobility 	minSpeed 	5.6500000953674
scalar IntersectionExampleScenario.node[574].veinsmobility 	maxSpeed 	15.02499961853
scalar IntersectionExampleScenario.node[574].veinsmobility 	totalDistance 	150.57584381104
scalar IntersectionExampleScenario.node[574].veinsmobility 	totalCO2Emission 	45.335644039462
scalar IntersectionExampleScenario.node[575].appl 	VehicleRemoved 	0
scalar IntersectionExampleScenario.node[575].appl 	ArrivedAtDest 	0
scalar IntersectionExampleScenario.node[575].appl 	IntersectionEnterTime 	1797
scalar IntersectionExampleScenario.node[575].appl 	IntersectionExitTime 	-1
scalar IntersectionExampleScenario.node[575].appl 	NumberOfCollisions 	0
scalar IntersectionExampleScenario.node[575].nic.phy80211p 	busyTime 	0
scalar IntersectionExampleScenario.node[575].nic.mac1609_4 	ReceivedUnicastPackets 	0
scalar IntersectionExampleScenario.node[575].nic.mac1609_4 	ReceivedBroadcasts 	0
scalar IntersectionExampleScenario.node[575].nic.mac1609_4 	SentPackets 	0
scalar IntersectionExampleScenario.node[575].nic.mac1609_4 	SNIRLostPackets 	0
scalar IntersectionExampleScenario.node[575].nic.mac1609_4 	RXTXLostPackets 	0
scalar IntersectionExampleScenario.node[575].nic.mac1609_4 	TotalLostPackets 	0
scalar IntersectionExampleScenario.node[575].nic.mac1609_4 	DroppedPacketsInMac 	0
scalar IntersectionExampleScenario.node[575].nic.mac1609_4 	TooLittleTime 	0
scalar IntersectionExampleScenario.node[575].nic.mac1609_4 	TimesIntoBackoff 	0
scalar IntersectionExampleScenario.node[575].nic.mac1609_4 	SlotsBackoff 	0
scalar IntersectionExampleScenario.node[575].nic.mac1609_4 	NumInternalContention 	0
scalar IntersectionExampleScenario.node[575].nic.mac1609_4 	totalBusyTime 	0
scalar IntersectionExampleScenario.node[575].veinsmobility 	startTime 	1797
scalar IntersectionExampleScenario.node[575].veinsmobility 	totalTime 	3
scalar IntersectionExampleScenario.node[575].veinsmobility 	stopTime 	1800
scalar IntersectionExampleScenario.node[575].veinsmobility 	minSpeed 	5.6500000953674
scalar IntersectionExampleScenario.node[575].veinsmobility 	maxSpeed 	12.52499961853
scalar IntersectionExampleScenario.node[575].veinsmobility 	totalDistance 	26.325012207031
scalar IntersectionExampleScenario.node[575].veinsmobility 	totalCO2Emission 	20.113115050741
